<?xml version="1.0" encoding="UTF-8"?>

<!-- generated on 2025-09-17 21:53:44.925426 by randomTrips.py v1_24_0+0000-b72eb3fabc8
<configuration>
    <net-file value="osm.net.xml.gz"/>
    <output-trip-file value="osm.truck.trips.xml"/>
    <route-file value="osm.truck.rou.xml"/>
    <prefix value="truck"/>
    <trip-attributes value="departLane=&quot;best&quot;"/>
    <fringe-start-attributes value="departSpeed=&quot;max&quot;"/>
    <vehicle-class value="truck"/>
    <fringe-factor value="5"/>
    <edge-permission value="truck"/>
    <via-edge-types value="highway.motorway,highway.motorway_link,highway.trunk_link,highway.primary_link,highway.secondary_link,highway.tertiary_link"/>
    <seed value="45"/>
    <min-distance value="600.0"/>
    <min-distance.fringe value="10.0"/>
    <remove-loops value="True"/>
    <insertion-density value="8.0"/>
</configuration>
-->

<routes xmlns:xsi="http://www.w3.org/2001/XMLSchema-instance" xsi:noNamespaceSchemaLocation="http://sumo.dlr.de/xsd/routes_file.xsd">
    <vType id="truck_truck" vClass="truck"/>
    <trip id="truck0" depart="0.00" from="-678188678" to="683268248#0" departLane="best" type="truck_truck" departSpeed="max"/>
    <trip id="truck1" depart="62.95" from="870991319#0" to="683268248#0" departLane="best" type="truck_truck" departSpeed="max"/>
    <trip id="truck2" depart="125.91" from="580815653#0" to="427550891#0" departLane="best" type="truck_truck" departSpeed="max"/>
    <trip id="truck3" depart="188.86" from="870991319#0" to="683268248#0" departLane="best" type="truck_truck" departSpeed="max"/>
    <trip id="truck4" depart="251.81" from="-678188678" to="683268248#0" departLane="best" type="truck_truck" departSpeed="max"/>
    <trip id="truck5" depart="314.76" from="580815653#0" to="427550891#0" departLane="best" type="truck_truck" departSpeed="max"/>
    <trip id="truck6" depart="377.72" from="-678188678" to="683268248#0" departLane="best" type="truck_truck" departSpeed="max"/>
    <trip id="truck7" depart="440.67" from="580815653#0" to="427550891#0" departLane="best" type="truck_truck" departSpeed="max"/>
    <trip id="truck8" depart="503.62" from="580815653#0" to="427550891#0" departLane="best" type="truck_truck" departSpeed="max"/>
    <trip id="truck9" depart="566.57" from="870991319#0" to="683268248#0" departLane="best" type="truck_truck" departSpeed="max"/>
    <trip id="truck10" depart="629.53" from="366949696" to="683268248#0" departLane="best" type="truck_truck" departSpeed="max"/>
    <trip id="truck11" depart="692.48" from="366949696" to="683268248#0" departLane="best" type="truck_truck" departSpeed="max"/>
    <trip id="truck12" depart="755.43" from="580815653#0" to="624604434" departLane="best" type="truck_truck" departSpeed="max"/>
    <trip id="truck13" depart="818.38" from="870991319#0" to="683268248#0" departLane="best" type="truck_truck" departSpeed="max"/>
    <trip id="truck14" depart="881.34" from="870991319#0" to="683268248#0" departLane="best" type="truck_truck" departSpeed="max"/>
    <trip id="truck15" depart="944.29" from="870991319#0" to="683268248#0" departLane="best" type="truck_truck" departSpeed="max"/>
    <trip id="truck16" depart="1007.24" from="-678188678" to="683268248#0" departLane="best" type="truck_truck" departSpeed="max"/>
    <trip id="truck17" depart="1070.19" from="580815653#0" to="852188473" departLane="best" type="truck_truck" departSpeed="max"/>
    <trip id="truck18" depart="1133.15" from="-678188678" to="683268248#0" departLane="best" type="truck_truck" departSpeed="max"/>
    <trip id="truck19" depart="1196.10" from="-678188678" to="683268248#0" departLane="best" type="truck_truck" departSpeed="max"/>
    <trip id="truck20" depart="1259.05" from="-678188678" to="683268248#0" departLane="best" type="truck_truck" departSpeed="max"/>
    <trip id="truck21" depart="1322.01" from="366949696" to="683268248#0" departLane="best" type="truck_truck" departSpeed="max"/>
    <trip id="truck22" depart="1384.96" from="366949696" to="683268248#0" departLane="best" type="truck_truck" departSpeed="max"/>
    <trip id="truck23" depart="1447.91" from="366949696" to="683268248#0" departLane="best" type="truck_truck" departSpeed="max"/>
    <trip id="truck24" depart="1510.86" from="561748189" to="683268248#0" departLane="best" type="truck_truck"/>
    <trip id="truck25" depart="1573.82" from="-678188678" to="683268248#0" departLane="best" type="truck_truck" departSpeed="max"/>
    <trip id="truck26" depart="1636.77" from="-678188678" to="683268248#0" departLane="best" type="truck_truck" departSpeed="max"/>
    <trip id="truck27" depart="1699.72" from="580815653#0" to="427550891#0" departLane="best" type="truck_truck" departSpeed="max"/>
    <trip id="truck28" depart="1762.67" from="870991319#0" to="683268248#0" departLane="best" type="truck_truck" departSpeed="max"/>
    <trip id="truck29" depart="1825.63" from="-678188678" to="683268248#0" departLane="best" type="truck_truck" departSpeed="max"/>
    <trip id="truck30" depart="1888.58" from="366949696" to="683268248#0" departLane="best" type="truck_truck" departSpeed="max"/>
    <trip id="truck31" depart="1951.53" from="-678188678" to="683268248#0" departLane="best" type="truck_truck" departSpeed="max"/>
    <trip id="truck32" depart="2014.48" from="870991319#0" to="683268248#0" departLane="best" type="truck_truck" departSpeed="max"/>
    <trip id="truck33" depart="2077.44" from="-678188678" to="683268248#0" departLane="best" type="truck_truck" departSpeed="max"/>
    <trip id="truck34" depart="2140.39" from="366949696" to="683268248#0" departLane="best" type="truck_truck" departSpeed="max"/>
    <trip id="truck35" depart="2203.34" from="580815653#0" to="427550891#0" departLane="best" type="truck_truck" departSpeed="max"/>
    <trip id="truck36" depart="2266.30" from="366949696" to="683268248#0" departLane="best" type="truck_truck" departSpeed="max"/>
    <trip id="truck37" depart="2329.25" from="580815653#0" to="624604434" departLane="best" type="truck_truck" departSpeed="max"/>
    <trip id="truck38" depart="2392.20" from="366949696" to="683268248#0" departLane="best" type="truck_truck" departSpeed="max"/>
    <trip id="truck39" depart="2455.15" from="580815653#0" to="427550891#0" departLane="best" type="truck_truck" departSpeed="max"/>
    <trip id="truck40" depart="2518.11" from="580815653#0" to="852188473" departLane="best" type="truck_truck" departSpeed="max"/>
    <trip id="truck41" depart="2581.06" from="870991319#0" to="683268248#0" departLane="best" type="truck_truck" departSpeed="max"/>
    <trip id="truck42" depart="2644.01" from="-678188678" to="683268248#0" departLane="best" type="truck_truck" departSpeed="max"/>
    <trip id="truck43" depart="2706.96" from="-678188678" to="683268248#0" departLane="best" type="truck_truck" departSpeed="max"/>
    <trip id="truck44" depart="2769.92" from="580815653#0" to="852188473" departLane="best" type="truck_truck" departSpeed="max"/>
    <trip id="truck45" depart="2832.87" from="-678188678" to="683268248#0" departLane="best" type="truck_truck" departSpeed="max"/>
    <trip id="truck46" depart="2895.82" from="-678188678" to="683268248#0" departLane="best" type="truck_truck" departSpeed="max"/>
    <trip id="truck47" depart="2958.77" from="580815653#0" to="427550891#0" departLane="best" type="truck_truck" departSpeed="max"/>
    <trip id="truck48" depart="3021.73" from="366949696" to="683268248#0" departLane="best" type="truck_truck" departSpeed="max"/>
    <trip id="truck49" depart="3084.68" from="580815653#0" to="561748193" departLane="best" type="truck_truck" departSpeed="max"/>
    <trip id="truck50" depart="3147.63" from="366949696" to="683268248#0" departLane="best" type="truck_truck" departSpeed="max"/>
    <trip id="truck51" depart="3210.58" from="366949696" to="683268248#0" departLane="best" type="truck_truck" departSpeed="max"/>
    <trip id="truck52" depart="3273.54" from="870991319#0" to="683268248#0" departLane="best" type="truck_truck" departSpeed="max"/>
    <trip id="truck53" depart="3336.49" from="580815653#0" to="427550891#0" departLane="best" type="truck_truck" departSpeed="max"/>
    <trip id="truck54" depart="3399.44" from="870991319#0" to="683268248#0" departLane="best" type="truck_truck" departSpeed="max"/>
    <trip id="truck55" depart="3462.40" from="561748193" to="683268248#0" departLane="best" type="truck_truck"/>
    <trip id="truck56" depart="3525.35" from="580815653#0" to="427550891#0" departLane="best" type="truck_truck" departSpeed="max"/>
    <trip id="truck57" depart="3588.30" from="-678188678" to="683268248#0" departLane="best" type="truck_truck" departSpeed="max"/>
</routes>
