<?xml version="1.0" encoding="UTF-8"?>

<!-- generated on 2025-09-17 21:53:42.576732 by randomTrips.py v1_24_0+0000-b72eb3fabc8
<configuration>
    <net-file value="osm.net.xml.gz"/>
    <output-trip-file value="osm.bus.trips.xml"/>
    <route-file value="osm.bus.rou.xml"/>
    <prefix value="bus"/>
    <trip-attributes value="departLane=&quot;best&quot;"/>
    <fringe-start-attributes value="departSpeed=&quot;max&quot;"/>
    <vehicle-class value="bus"/>
    <fringe-factor value="5"/>
    <edge-permission value="bus"/>
    <via-edge-types value="highway.motorway,highway.motorway_link,highway.trunk_link,highway.primary_link,highway.secondary_link,highway.tertiary_link"/>
    <min-distance value="600.0"/>
    <min-distance.fringe value="10.0"/>
    <remove-loops value="True"/>
    <insertion-density value="4.0"/>
</configuration>
-->

<!-- generated on 2025-09-17 21:53:42 by Eclipse SUMO duarouter Version 1.24.0
<duarouterConfiguration xmlns:xsi="http://www.w3.org/2001/XMLSchema-instance" xsi:noNamespaceSchemaLocation="http://sumo.dlr.de/xsd/duarouterConfiguration.xsd">

    <input>
        <net-file value="osm.net.xml.gz"/>
        <route-files value="osm.bus.trips.xml"/>
    </input>

    <output>
        <output-file value="osm.bus.rou.xml"/>
        <alternatives-output value="NUL"/>
    </output>

    <processing>
        <remove-loops value="true"/>
    </processing>

    <time>
        <begin value="0.0"/>
        <end value="3600.0"/>
    </time>

    <report>
        <no-warnings value="true"/>
        <ignore-errors value="true"/>
        <no-step-log value="true"/>
    </report>

</duarouterConfiguration>
-->

<routes xmlns:xsi="http://www.w3.org/2001/XMLSchema-instance" xsi:noNamespaceSchemaLocation="http://sumo.dlr.de/xsd/routes_file.xsd">
    <vType id="bus_bus" vClass="bus"/>
    <vehicle id="bus0" type="bus_bus" depart="0.00" departLane="best" departSpeed="max">
        <route edges="580815653#0 158466192#0 624604436 852188473 561748193 624604434"/>
    </vehicle>
    <vehicle id="bus1" type="bus_bus" depart="125.91" departLane="best" departSpeed="max">
        <route edges="870991319#0 624604435#0 683268248#0"/>
    </vehicle>
    <vehicle id="bus2" type="bus_bus" depart="251.81" departLane="best" departSpeed="max">
        <route edges="-678188678 561748189 573710409#0 683268248#0"/>
    </vehicle>
    <vehicle id="bus3" type="bus_bus" depart="377.72" departLane="best" departSpeed="max">
        <route edges="580815653#0 158466192#0 624604436 852188473 561748193 624604434"/>
    </vehicle>
    <vehicle id="bus4" type="bus_bus" depart="503.62" departLane="best" departSpeed="max">
        <route edges="580815653#0 158466192#0 624604436 852188473 561748193 624604434"/>
    </vehicle>
    <vehicle id="bus5" type="bus_bus" depart="629.53" departLane="best" departSpeed="max">
        <route edges="580815653#0 158466192#0 624604436 852188473 561748193 427550891#0"/>
    </vehicle>
    <vehicle id="bus6" type="bus_bus" depart="755.43" departLane="best" departSpeed="max">
        <route edges="580815653#0 158466192#0 624604436 852188473 561748193 427550891#0"/>
    </vehicle>
    <vehicle id="bus7" type="bus_bus" depart="881.34" departLane="best" departSpeed="max">
        <route edges="870991319#0 624604435#0 683268248#0"/>
    </vehicle>
    <vehicle id="bus8" type="bus_bus" depart="1007.24" departLane="best" departSpeed="max">
        <route edges="580815653#0 158466192#0 624604436 852188473"/>
    </vehicle>
    <vehicle id="bus9" type="bus_bus" depart="1133.15" departLane="best" departSpeed="max">
        <route edges="366949696 561748189 573710409#0 683268248#0"/>
    </vehicle>
    <vehicle id="bus10" type="bus_bus" depart="1259.05" departLane="best">
        <route edges="561748193 561748189 573710409#0 683268248#0"/>
    </vehicle>
    <vehicle id="bus11" type="bus_bus" depart="1384.96" departLane="best" departSpeed="max">
        <route edges="580815653#0 158466192#0 624604436 852188473 561748193 427550891#0"/>
    </vehicle>
    <vehicle id="bus12" type="bus_bus" depart="1510.86" departLane="best" departSpeed="max">
        <route edges="-678188678 561748189 573710409#0 683268248#0"/>
    </vehicle>
    <vehicle id="bus13" type="bus_bus" depart="1636.77" departLane="best" departSpeed="max">
        <route edges="366949696 561748189 573710409#0 683268248#0"/>
    </vehicle>
    <vehicle id="bus14" type="bus_bus" depart="1762.67" departLane="best">
        <route edges="561748193 561748189 573710409#0 683268248#0"/>
    </vehicle>
    <vehicle id="bus15" type="bus_bus" depart="1888.58" departLane="best" departSpeed="max">
        <route edges="580815653#0 158466192#0 624604436 852188473 561748193 427550891#0"/>
    </vehicle>
    <vehicle id="bus16" type="bus_bus" depart="2014.48" departLane="best" departSpeed="max">
        <route edges="366949696 561748189 573710409#0 683268248#0"/>
    </vehicle>
    <vehicle id="bus17" type="bus_bus" depart="2140.39" departLane="best" departSpeed="max">
        <route edges="580815653#0 158466192#0 624604436 852188473 561748193 624604434"/>
    </vehicle>
    <vehicle id="bus18" type="bus_bus" depart="2266.30" departLane="best" departSpeed="max">
        <route edges="580815653#0 158466192#0 624604436 852188473 561748193 624604434"/>
    </vehicle>
    <vehicle id="bus19" type="bus_bus" depart="2392.20" departLane="best" departSpeed="max">
        <route edges="-678188678 561748189 573710409#0 683268248#0"/>
    </vehicle>
    <vehicle id="bus20" type="bus_bus" depart="2518.11" departLane="best" departSpeed="max">
        <route edges="580815653#0 158466192#0 624604436 852188473 561748193 427550891#0"/>
    </vehicle>
    <vehicle id="bus21" type="bus_bus" depart="2644.01" departLane="best" departSpeed="max">
        <route edges="366949696 561748189 573710409#0 683268248#0"/>
    </vehicle>
    <vehicle id="bus22" type="bus_bus" depart="2769.92" departLane="best" departSpeed="max">
        <route edges="366949696 561748189 573710409#0 683268248#0"/>
    </vehicle>
    <vehicle id="bus23" type="bus_bus" depart="2895.82" departLane="best" departSpeed="max">
        <route edges="366949696 561748189 573710409#0 683268248#0"/>
    </vehicle>
    <vehicle id="bus24" type="bus_bus" depart="3021.73" departLane="best" departSpeed="max">
        <route edges="580815653#0 158466192#0 624604436 852188473 561748193 624604434"/>
    </vehicle>
    <vehicle id="bus25" type="bus_bus" depart="3147.63" departLane="best" departSpeed="max">
        <route edges="-678188678 561748189 573710409#0 683268248#0"/>
    </vehicle>
    <vehicle id="bus26" type="bus_bus" depart="3273.54" departLane="best" departSpeed="max">
        <route edges="580815653#0 158466192#0 624604436 852188473 561748193 427550891#0"/>
    </vehicle>
    <vehicle id="bus27" type="bus_bus" depart="3399.44" departLane="best" departSpeed="max">
        <route edges="580815653#0 158466192#0 624604436 852188473 561748193 624604434"/>
    </vehicle>
    <vehicle id="bus28" type="bus_bus" depart="3525.35" departLane="best">
        <route edges="561748189 573710409#0 683268248#0"/>
    </vehicle>
</routes>
