<?xml version="1.0" encoding="UTF-8"?>

<!-- generated on 2025-09-26 19:56:46.472526 by randomTrips.py v1_24_0+0000-b72eb3fabc8
<configuration>
    <net-file value="C:/Users/kgaqu/OneDrive/Documents/4th Year/Capstone 2/v10/backend/networks/sm_bacoor_area/sm_bacoor_area.net.xml"/>
    <output-trip-file value="C:/Users/kgaqu/AppData/Local/Temp/tmpwy13hejm.trips_3.xml"/>
    <vehicle-class value="motorcycle"/>
    <random-factor value="2.25"/>
    <fringe-factor value="2.0"/>
    <edge-permission value="motorcycle"/>
    <seed value="456"/>
    <random value="True"/>
    <min-distance value="300.0"/>
    <period value="425.5434495442878"/>
</configuration>
-->

<!-- generated on 2025-09-26 19:56:46 by Eclipse SUMO duarouter Version 1.24.0
<duarouterConfiguration xmlns:xsi="http://www.w3.org/2001/XMLSchema-instance" xsi:noNamespaceSchemaLocation="http://sumo.dlr.de/xsd/duarouterConfiguration.xsd">

    <input>
        <net-file value="C:/Users/kgaqu/OneDrive/Documents/4th Year/Capstone 2/v10/backend/networks/sm_bacoor_area/sm_bacoor_area.net.xml"/>
        <route-files value="C:/Users/kgaqu/AppData/Local/Temp/tmpwy13hejm.trips_3.xml"/>
    </input>

    <output>
        <output-file value="routes.rou.xml"/>
        <alternatives-output value="NUL"/>
    </output>

    <time>
        <begin value="0"/>
        <end value="3600"/>
    </time>

    <report>
        <no-warnings value="true"/>
        <ignore-errors value="true"/>
        <no-step-log value="true"/>
    </report>

</duarouterConfiguration>
-->

<routes xmlns:xsi="http://www.w3.org/2001/XMLSchema-instance" xsi:noNamespaceSchemaLocation="http://sumo.dlr.de/xsd/routes_file.xsd">
    <vType id="motorcycle" vClass="motorcycle"/>
    <vehicle id="0" type="motorcycle" depart="0.00">
        <route edges="-587063887#5 1252226318#0 587063900#0 -1252226314 -1293084433"/>
    </vehicle>
    <vehicle id="1" type="motorcycle" depart="425.54">
        <route edges="-587063887#5 1252226318#0 587063900#0 -1252226314 -1293084433"/>
    </vehicle>
    <vehicle id="2" type="motorcycle" depart="851.09">
        <route edges="1296098177 1287697069 1252226323 421085682"/>
    </vehicle>
    <vehicle id="3" type="motorcycle" depart="1276.63">
        <route edges="-587063887#5 1252226318#0 421085682 -333292211#2"/>
    </vehicle>
    <vehicle id="4" type="motorcycle" depart="1702.17">
        <route edges="1252226316 587063887#0 -587063887#5 1252226318#0 587063900#0 -1252226314 -1293084433"/>
    </vehicle>
    <vehicle id="5" type="motorcycle" depart="2127.72">
        <route edges="-587063887#5 1252226318#0 421085682 -333292211#2"/>
    </vehicle>
    <vehicle id="6" type="motorcycle" depart="2553.26">
        <route edges="-587063887#5 1252226318#0 587063900#0 -1252226314"/>
    </vehicle>
    <vehicle id="7" type="motorcycle" depart="2978.80">
        <route edges="1296098177 1287697069 1252226323 421085682"/>
    </vehicle>
    <vehicle id="8" type="motorcycle" depart="3404.35">
        <route edges="1252226316 587063887#0 -587063887#5 1252226318#0 587063900#0 -1252226314 -1293084433"/>
    </vehicle>
</routes>
