<?xml version="1.0" encoding="UTF-8"?>

<!-- generated on 2025-09-17 21:32:50.014678 by randomTrips.py v1_24_0+0000-b72eb3fabc8
<configuration>
    <net-file value="osm.net.xml.gz"/>
    <output-trip-file value="osm.passenger.trips.xml"/>
    <route-file value="osm.passenger.rou.xml"/>
    <prefix value="veh"/>
    <trip-attributes value="departLane=&quot;best&quot;"/>
    <fringe-start-attributes value="departSpeed=&quot;max&quot;"/>
    <vehicle-class value="passenger"/>
    <lanes value="True"/>
    <fringe-factor value="5"/>
    <allow-fringe.min-length value="1000.0"/>
    <edge-permission value="passenger"/>
    <via-edge-types value="highway.motorway,highway.motorway_link,highway.trunk_link,highway.primary_link,highway.secondary_link,highway.tertiary_link"/>
    <seed value="44"/>
    <min-distance value="300.0"/>
    <min-distance.fringe value="10.0"/>
    <remove-loops value="True"/>
    <insertion-density value="12.0"/>
</configuration>
-->

<routes xmlns:xsi="http://www.w3.org/2001/XMLSchema-instance" xsi:noNamespaceSchemaLocation="http://sumo.dlr.de/xsd/routes_file.xsd">
    <vType id="veh_passenger" vClass="passenger"/>
    <trip id="veh0" depart="0.00" from="1054315844#0" to="1326404883" departLane="best" type="veh_passenger" departSpeed="max"/>
    <trip id="veh1" depart="71.26" from="-1392084250" to="-564298126#9" departLane="best" type="veh_passenger" departSpeed="max"/>
    <trip id="veh2" depart="142.52" from="-1392084250" to="-564298126#9" departLane="best" type="veh_passenger" departSpeed="max"/>
    <trip id="veh3" depart="213.78" from="1054315844#0" to="1326404883" departLane="best" type="veh_passenger" departSpeed="max"/>
    <trip id="veh4" depart="285.04" from="564298145" to="1054315845#0" departLane="best" type="veh_passenger" departSpeed="max"/>
    <trip id="veh5" depart="356.31" from="-1392084250" to="-564298126#9" departLane="best" type="veh_passenger" departSpeed="max"/>
    <trip id="veh6" depart="427.57" from="1392084244#0" to="712245744#0" departLane="best" type="veh_passenger" departSpeed="max"/>
    <trip id="veh7" depart="498.83" from="-1392084250" to="1054315845#0" departLane="best" type="veh_passenger" departSpeed="max"/>
    <trip id="veh8" depart="570.09" from="1392084244#0" to="653727192" departLane="best" type="veh_passenger" departSpeed="max"/>
    <trip id="veh9" depart="641.35" from="-1392084250" to="1054315845#0" departLane="best" type="veh_passenger" departSpeed="max"/>
    <trip id="veh10" depart="712.61" from="-653727191#1" to="-564298126#9" departLane="best" type="veh_passenger"/>
    <trip id="veh11" depart="783.87" from="1392084244#0" to="1326404883" departLane="best" type="veh_passenger" departSpeed="max"/>
    <trip id="veh12" depart="855.13" from="1054315844#0" to="653727192" departLane="best" type="veh_passenger" departSpeed="max"/>
    <trip id="veh13" depart="926.39" from="564298145" to="-564298126#9" departLane="best" type="veh_passenger" departSpeed="max"/>
    <trip id="veh14" depart="997.66" from="-1392084250" to="-712245744#1" departLane="best" type="veh_passenger" departSpeed="max"/>
    <trip id="veh15" depart="1068.92" from="-1392084250" to="-564298126#9" departLane="best" type="veh_passenger" departSpeed="max"/>
    <trip id="veh16" depart="1140.18" from="1054315844#0" to="653727192" departLane="best" type="veh_passenger" departSpeed="max"/>
    <trip id="veh17" depart="1211.44" from="-653727191#1" to="-564298126#9" departLane="best" type="veh_passenger"/>
    <trip id="veh18" depart="1282.70" from="1392084244#0" to="-653727191#1" departLane="best" type="veh_passenger" departSpeed="max"/>
    <trip id="veh19" depart="1353.96" from="-653727191#1" to="-564298126#9" departLane="best" type="veh_passenger"/>
    <trip id="veh20" depart="1425.22" from="1392084244#0" to="653727192" departLane="best" type="veh_passenger" departSpeed="max"/>
    <trip id="veh21" depart="1496.48" from="1392084244#0" to="1326404883" departLane="best" type="veh_passenger" departSpeed="max"/>
    <trip id="veh22" depart="1567.74" from="1392084244#0" to="653727192" departLane="best" type="veh_passenger" departSpeed="max"/>
    <trip id="veh23" depart="1639.01" from="-1392084250" to="1054315845#0" departLane="best" type="veh_passenger" departSpeed="max"/>
    <trip id="veh24" depart="1710.27" from="564298145" to="1054315845#0" departLane="best" type="veh_passenger" departSpeed="max"/>
    <trip id="veh25" depart="1781.53" from="1392084244#0" to="653727192" departLane="best" type="veh_passenger" departSpeed="max"/>
    <trip id="veh26" depart="1852.79" from="1392084244#0" to="1326404883" departLane="best" type="veh_passenger" departSpeed="max"/>
    <trip id="veh27" depart="1924.05" from="1392084244#0" to="653727192" departLane="best" type="veh_passenger" departSpeed="max"/>
    <trip id="veh28" depart="1995.31" from="564298145" to="1054315845#0" departLane="best" type="veh_passenger" departSpeed="max"/>
    <trip id="veh29" depart="2066.57" from="712245744#0" to="653727192" departLane="best" type="veh_passenger"/>
    <trip id="veh30" depart="2137.83" from="564298145" to="-564298126#9" departLane="best" type="veh_passenger" departSpeed="max"/>
    <trip id="veh31" depart="2209.09" from="-1392084250" to="-564298126#9" departLane="best" type="veh_passenger" departSpeed="max"/>
    <trip id="veh32" depart="2280.36" from="-1392084250" to="-564298126#9" departLane="best" type="veh_passenger" departSpeed="max"/>
    <trip id="veh33" depart="2351.62" from="-1392084250" to="1054315845#0" departLane="best" type="veh_passenger" departSpeed="max"/>
    <trip id="veh34" depart="2422.88" from="-712245744#1" to="-564298126#9" departLane="best" type="veh_passenger"/>
    <trip id="veh35" depart="2494.14" from="564298145" to="-564298126#9" departLane="best" type="veh_passenger" departSpeed="max"/>
    <trip id="veh36" depart="2565.40" from="564298145" to="-564298126#9" departLane="best" type="veh_passenger" departSpeed="max"/>
    <trip id="veh37" depart="2636.66" from="-1392084250" to="-564298126#9" departLane="best" type="veh_passenger" departSpeed="max"/>
    <trip id="veh38" depart="2707.92" from="1392084244#0" to="653727192" departLane="best" type="veh_passenger" departSpeed="max"/>
    <trip id="veh39" depart="2779.18" from="1054315844#0" to="653727192" departLane="best" type="veh_passenger" departSpeed="max"/>
    <trip id="veh40" depart="2850.44" from="-653727191#1" to="1054315845#0" departLane="best" type="veh_passenger"/>
    <trip id="veh41" depart="2921.71" from="-1392084250" to="1054315845#0" departLane="best" type="veh_passenger" departSpeed="max"/>
    <trip id="veh42" depart="2992.97" from="1054315844#0" to="653727192" departLane="best" type="veh_passenger" departSpeed="max"/>
    <trip id="veh43" depart="3064.23" from="1054315844#0" to="1326404883" departLane="best" type="veh_passenger" departSpeed="max"/>
    <trip id="veh44" depart="3135.49" from="564298145" to="1054315845#0" departLane="best" type="veh_passenger" departSpeed="max"/>
    <trip id="veh45" depart="3206.75" from="-1392084250" to="-564298126#9" departLane="best" type="veh_passenger" departSpeed="max"/>
    <trip id="veh46" depart="3278.01" from="-1392084250" to="1054315845#0" departLane="best" type="veh_passenger" departSpeed="max"/>
    <trip id="veh47" depart="3349.27" from="564298145" to="1054315845#0" departLane="best" type="veh_passenger" departSpeed="max"/>
    <trip id="veh48" depart="3420.53" from="653727191#0" to="-564298126#9" departLane="best" type="veh_passenger"/>
    <trip id="veh49" depart="3491.79" from="1392084244#0" to="653727192" departLane="best" type="veh_passenger" departSpeed="max"/>
    <trip id="veh50" depart="3563.06" from="1392084244#0" to="653727192" departLane="best" type="veh_passenger" departSpeed="max"/>
</routes>
