<?xml version='1.0' encoding='utf-8'?>
<routes xmlns:xsi="http://www.w3.org/2001/XMLSchema-instance" xsi:noNamespaceSchemaLocation="http://sumo.dlr.de/xsd/routes_file.xsd"><vType id="veh_passenger" vClass="passenger" guiShape="passenger" color="128,128,128" maxSpeed="55.56" accel="2.6" decel="4.5" />
    <trip id="passenger_735088_0" depart="2895.82" from="366949696" to="366952449#0" departLane="best" type="veh_passenger" departSpeed="max" /><trip id="passenger_735088_1" depart="2014.48" from="366949696" to="683268248#0" departLane="best" type="veh_passenger" departSpeed="max" /><trip id="passenger_735088_2" depart="419.68" from="561748193" to="683268248#0" departLane="best" type="veh_passenger" /><trip id="passenger_735088_3" depart="1804.64" from="651079990" to="1054125801" departLane="best" type="veh_passenger" departSpeed="max" /><trip id="passenger_735088_4" depart="3357.47" from="573710409#0" to="683268248#0" departLane="best" type="veh_passenger" /><trip id="passenger_735088_5" depart="1091.18" from="366949696" to="427550891#0" departLane="best" type="veh_passenger" departSpeed="max" /><trip id="passenger_735088_6" depart="41.97" from="870991319#0" to="366952449#0" departLane="best" type="veh_passenger" departSpeed="max" /><trip id="passenger_735088_7" depart="1133.15" from="573710409#0" to="683268248#0" departLane="best" type="veh_passenger" /><trip id="passenger_735088_8" depart="923.31" from="366949696" to="573710409#0" departLane="best" type="veh_passenger" departSpeed="max" /><trip id="passenger_735088_9" depart="965.27" from="580815653#0" to="624604436" departLane="best" type="veh_passenger" departSpeed="max" /><trip id="passenger_735088_10" depart="3315.51" from="573710409#0" to="683268248#0" departLane="best" type="veh_passenger" /><trip id="passenger_735088_11" depart="797.40" from="580815653#0" to="624604434" departLane="best" type="veh_passenger" departSpeed="max" /><trip id="passenger_735088_12" depart="3063.70" from="580815653#0" to="624604434" departLane="best" type="veh_passenger" departSpeed="max" /><trip id="passenger_735088_13" depart="881.34" from="366949696" to="366952449#0" departLane="best" type="veh_passenger" departSpeed="max" /><trip id="passenger_735088_14" depart="2224.33" from="366949696" to="366952449#0" departLane="best" type="veh_passenger" departSpeed="max" /><trip id="passenger_735088_15" depart="1552.83" from="-678188678" to="1054125801" departLane="best" type="veh_passenger" departSpeed="max" /><trip id="passenger_735088_16" depart="1636.77" from="580815653#0" to="366952449#0" departLane="best" type="veh_passenger" departSpeed="max" /><trip id="passenger_735088_17" depart="209.84" from="580815653#0" to="624604434" departLane="best" type="veh_passenger" departSpeed="max" /><trip id="passenger_735088_18" depart="1762.67" from="158466192#0" to="624604434" departLane="best" type="veh_passenger" /><trip id="passenger_735088_19" depart="2644.01" from="580815653#0" to="624604434" departLane="best" type="veh_passenger" departSpeed="max" /><trip id="passenger_735088_20" depart="587.56" from="580815653#0" to="427550891#0" departLane="best" type="veh_passenger" departSpeed="max" /><trip id="passenger_735088_21" depart="2560.07" from="561748193" to="683268248#0" departLane="best" type="veh_passenger" /><trip id="passenger_735088_22" depart="3231.57" from="624604436" to="683268248#0" departLane="best" type="veh_passenger" /><trip id="passenger_735088_23" depart="1217.08" from="-678188678" to="683268248#0" departLane="best" type="veh_passenger" departSpeed="max" /><trip id="passenger_735088_24" depart="2937.79" from="366949696" to="427550891#0" departLane="best" type="veh_passenger" departSpeed="max" /><trip id="passenger_735088_25" depart="2434.17" from="580815653#0" to="427550891#0" departLane="best" type="veh_passenger" departSpeed="max" /><trip id="passenger_735088_26" depart="3147.63" from="580815653#0" to="366952449#0" departLane="best" type="veh_passenger" departSpeed="max" /><trip id="passenger_735088_27" depart="251.81" from="561748193" to="683268248#0" departLane="best" type="veh_passenger" /><trip id="passenger_735088_28" depart="1384.96" from="870991319#0" to="366952449#0" departLane="best" type="veh_passenger" departSpeed="max" /><trip id="passenger_735088_29" depart="377.72" from="366949696" to="366952449#0" departLane="best" type="veh_passenger" departSpeed="max" /><trip id="passenger_735088_30" depart="335.75" from="642898747" to="624604434" departLane="best" type="veh_passenger" /><trip id="passenger_735088_31" depart="1846.61" from="580815653#0" to="624604434" departLane="best" type="veh_passenger" departSpeed="max" /><trip id="passenger_735088_32" depart="3567.32" from="580815653#0" to="366952449#0" departLane="best" type="veh_passenger" departSpeed="max" /><trip id="passenger_735088_33" depart="671.49" from="158466192#0" to="683268248#0" departLane="best" type="veh_passenger" /><trip id="passenger_735088_34" depart="2140.39" from="158466192#0" to="683268248#0" departLane="best" type="veh_passenger" /><trip id="passenger_735088_35" depart="2350.23" from="651079990" to="561748193" departLane="best" type="veh_passenger" departSpeed="max" /><trip id="passenger_735088_36" depart="1468.90" from="580815653#0" to="561748193" departLane="best" type="veh_passenger" departSpeed="max" /><trip id="passenger_735088_37" depart="83.94" from="366949696" to="427550891#0" departLane="best" type="veh_passenger" departSpeed="max" /><trip id="passenger_735088_38" depart="3441.41" from="366949696" to="683268248#0" departLane="best" type="veh_passenger" departSpeed="max" /><trip id="passenger_735088_39" depart="1888.58" from="580815653#0" to="624604434" departLane="best" type="veh_passenger" departSpeed="max" /><trip id="passenger_735088_40" depart="2602.04" from="366949696" to="573710409#0" departLane="best" type="veh_passenger" departSpeed="max" /><trip id="passenger_735088_41" depart="2979.76" from="651079990" to="683268248#0" departLane="best" type="veh_passenger" departSpeed="max" /><trip id="passenger_735088_42" depart="1007.24" from="561748189" to="366952449#0" departLane="best" type="veh_passenger" /><trip id="passenger_735088_43" depart="1259.05" from="561748189" to="366952449#0" departLane="best" type="veh_passenger" /><trip id="passenger_735088_44" depart="1972.52" from="561748189" to="427550891#0" departLane="best" type="veh_passenger" /><trip id="passenger_735088_45" depart="2769.92" from="366949696" to="427550891#0" departLane="best" type="veh_passenger" departSpeed="max" /><trip id="passenger_735088_46" depart="2476.14" from="870991319#0" to="366952449#0" departLane="best" type="veh_passenger" departSpeed="max" /><trip id="passenger_735088_47" depart="3189.60" from="366949696" to="366952449#0" departLane="best" type="veh_passenger" departSpeed="max" /><trip id="passenger_735088_48" depart="1930.55" from="580815653#0" to="427550891#0" departLane="best" type="veh_passenger" departSpeed="max" /><trip id="passenger_735088_49" depart="755.43" from="366949696" to="427550891#0" departLane="best" type="veh_passenger" departSpeed="max" /><trip id="passenger_735088_50" depart="1301.02" from="580815653#0" to="1054125801" departLane="best" type="veh_passenger" departSpeed="max" /><trip id="passenger_735088_51" depart="0.00" from="158466192#0" to="683268248#0" departLane="best" type="veh_passenger" /><trip id="passenger_735088_52" depart="167.87" from="580815653#0" to="1054125801" departLane="best" type="veh_passenger" departSpeed="max" /><trip id="passenger_735088_53" depart="2727.95" from="-678188678" to="1054125801" departLane="best" type="veh_passenger" departSpeed="max" /><trip id="passenger_735088_54" depart="125.91" from="651079990" to="683268248#0" departLane="best" type="veh_passenger" departSpeed="max" /><trip id="passenger_735088_55" depart="1678.74" from="366949696" to="427550891#0" departLane="best" type="veh_passenger" departSpeed="max" /><trip id="passenger_735088_56" depart="3525.35" from="580815653#0" to="624604436" departLane="best" type="veh_passenger" departSpeed="max" /><trip id="passenger_735088_57" depart="2266.30" from="642898747" to="624604434" departLane="best" type="veh_passenger" /><trip id="passenger_735088_58" depart="2308.26" from="580815653#0" to="624604434" departLane="best" type="veh_passenger" departSpeed="max" /><trip id="passenger_735088_59" depart="2056.45" from="580815653#0" to="573710409#0" departLane="best" type="veh_passenger" departSpeed="max" /><trip id="passenger_735088_60" depart="461.65" from="580815653#0" to="1054125801" departLane="best" type="veh_passenger" departSpeed="max" /><trip id="passenger_735088_61" depart="2685.98" from="366949696" to="158466192#0" departLane="best" type="veh_passenger" departSpeed="max" /><trip id="passenger_735088_62" depart="629.53" from="158466192#0" to="624604434" departLane="best" type="veh_passenger" /><trip id="passenger_735088_63" depart="1594.80" from="624604436" to="624604434" departLane="best" type="veh_passenger" /><trip id="passenger_735088_64" depart="3021.73" from="580815653#0" to="624604434" departLane="best" type="veh_passenger" departSpeed="max" /><trip id="passenger_735088_65" depart="503.62" from="366949696" to="158466192#0" departLane="best" type="veh_passenger" departSpeed="max" /><trip id="passenger_735088_66" depart="713.46" from="580815653#0" to="158466192#0" departLane="best" type="veh_passenger" departSpeed="max" /><trip id="passenger_735088_67" depart="2392.20" from="366949696" to="573710409#0" departLane="best" type="veh_passenger" departSpeed="max" /><trip id="passenger_735088_enh_68" depart="0.00" from="427551860" to="683268248#0" type="veh_passenger" color="128,0,128" departLane="best" departSpeed="max" departPos="random" speedFactor="0.93" /><trip id="passenger_735088_enh_69" depart="0.57" from="366949696" to="1054125801" type="veh_passenger" color="128,0,128" departLane="best" departSpeed="max" departPos="random" speedFactor="1.15" /><trip id="passenger_735088_enh_70" depart="2.25" from="852188473" to="427550891#0" type="veh_passenger" color="255,165,0" departLane="best" departSpeed="max" departPos="random" speedFactor="0.92" /><trip id="passenger_735088_enh_71" depart="9.11" from="642898747" to="624604436" type="veh_passenger" color="0,0,0" departLane="best" departSpeed="max" departPos="random" speedFactor="0.99" /><trip id="passenger_735088_enh_72" depart="165.54" from="-678188678" to="1054125801" type="veh_passenger" color="128,0,128" departLane="best" departSpeed="max" departPos="random" speedFactor="0.96" /><trip id="passenger_735088_enh_73" depart="201.28" from="573710409#0" to="183689805#0" type="veh_passenger" color="128,128,128" departLane="best" departSpeed="max" departPos="random" speedFactor="1.05" /><trip id="passenger_735088_enh_74" depart="244.87" from="580815653#0" to="366952449#0" type="veh_passenger" color="139,69,19" departLane="best" departSpeed="max" departPos="random" speedFactor="0.93" /><trip id="passenger_735088_enh_75" depart="314.85" from="158466192#0" to="624604434" type="veh_passenger" color="128,128,128" departLane="best" departSpeed="max" departPos="random" speedFactor="1.02" /><trip id="passenger_735088_enh_76" depart="417.94" from="624604435#0" to="1054125801" type="veh_passenger" color="128,128,128" departLane="best" departSpeed="max" departPos="random" speedFactor="0.9" /><trip id="passenger_735088_enh_77" depart="436.27" from="-678188678" to="624604436" type="veh_passenger" color="255,20,147" departLane="best" departSpeed="max" departPos="random" speedFactor="1.15" /><trip id="passenger_735088_enh_78" depart="467.97" from="651079990" to="852188473" type="veh_passenger" color="255,255,0" departLane="best" departSpeed="max" departPos="random" speedFactor="0.99" /><trip id="passenger_735088_enh_79" depart="470.41" from="651079990" to="427550891#0" type="veh_passenger" color="50,205,50" departLane="best" departSpeed="max" departPos="random" speedFactor="0.86" /><trip id="passenger_735088_enh_80" depart="622.78" from="624604435#0" to="683268248#0" type="veh_passenger" color="0,0,0" departLane="best" departSpeed="max" departPos="random" speedFactor="1.1" /><trip id="passenger_735088_enh_81" depart="625.20" from="580815653#0" to="852188473" type="veh_passenger" color="0,255,255" departLane="best" departSpeed="max" departPos="random" speedFactor="1.14" /><trip id="passenger_735088_enh_82" depart="692.92" from="183689805#0" to="1054125801" type="veh_passenger" color="50,205,50" departLane="best" departSpeed="max" departPos="random" speedFactor="0.92" /><trip id="passenger_735088_enh_83" depart="774.42" from="870991319#0" to="561748189" type="veh_passenger" color="255,255,255" departLane="best" departSpeed="max" departPos="random" speedFactor="0.96" /><trip id="passenger_735088_enh_84" depart="830.64" from="366949696" to="1054125801" type="veh_passenger" color="139,69,19" departLane="best" departSpeed="max" departPos="random" speedFactor="0.89" /><trip id="passenger_735088_enh_85" depart="885.72" from="870991319#0" to="683268248#0" type="veh_passenger" color="192,192,192" departLane="best" departSpeed="max" departPos="random" speedFactor="0.88" /><trip id="passenger_735088_enh_86" depart="908.11" from="580815653#0" to="366952449#0" type="veh_passenger" color="139,69,19" departLane="best" departSpeed="max" departPos="random" speedFactor="0.87" /><trip id="passenger_735088_enh_87" depart="920.29" from="366949696" to="624604436" type="veh_passenger" color="255,255,255" departLane="best" departSpeed="max" departPos="random" speedFactor="1.09" /><trip id="passenger_735088_enh_88" depart="1038.85" from="651079990" to="624604434" type="veh_passenger" color="0,0,0" departLane="best" departSpeed="max" departPos="random" speedFactor="0.99" /><trip id="passenger_735088_enh_89" depart="1066.20" from="580815653#0" to="561748193" type="veh_passenger" color="255,165,0" departLane="best" departSpeed="max" departPos="random" speedFactor="0.86" /><trip id="passenger_735088_enh_90" depart="1165.87" from="561748189" to="1054125801" type="veh_passenger" color="255,0,0" departLane="best" departSpeed="max" departPos="random" speedFactor="0.91" /><trip id="passenger_735088_enh_91" depart="1235.57" from="366949696" to="427550891#0" type="veh_passenger" color="139,69,19" departLane="best" departSpeed="max" departPos="random" speedFactor="1.02" /><trip id="passenger_735088_enh_92" depart="1250.64" from="852188473" to="683268248#0" type="veh_passenger" color="128,128,128" departLane="best" departSpeed="max" departPos="random" speedFactor="1.12" /><trip id="passenger_735088_enh_93" depart="1327.85" from="651079990" to="561748193" type="veh_passenger" color="139,69,19" departLane="best" departSpeed="max" departPos="random" speedFactor="1.11" /><trip id="passenger_735088_enh_94" depart="1380.82" from="651079990" to="624604436" type="veh_passenger" color="128,0,128" departLane="best" departSpeed="max" departPos="random" speedFactor="1.09" /><trip id="passenger_735088_enh_95" depart="1413.73" from="870991319#0" to="683268248#0" type="veh_passenger" color="255,20,147" departLane="best" departSpeed="max" departPos="random" speedFactor="1.03" /><trip id="passenger_735088_enh_96" depart="1460.93" from="366949696" to="366952449#0" type="veh_passenger" color="255,255,0" departLane="best" departSpeed="max" departPos="random" speedFactor="1.09" /><trip id="passenger_735088_enh_97" depart="1534.61" from="573710409#0" to="624604434" type="veh_passenger" color="0,0,0" departLane="best" departSpeed="max" departPos="random" speedFactor="1.12" /><trip id="passenger_735088_enh_98" depart="1626.24" from="870991319#0" to="573710409#0" type="veh_passenger" color="50,205,50" departLane="best" departSpeed="max" departPos="random" speedFactor="1.14" /><trip id="passenger_735088_enh_99" depart="1673.85" from="366949696" to="427550891#0" type="veh_passenger" color="192,192,192" departLane="best" departSpeed="max" departPos="random" speedFactor="0.96" /><trip id="passenger_735088_enh_100" depart="1677.19" from="651079990" to="183689805#0" type="veh_passenger" color="128,128,128" departLane="best" departSpeed="max" departPos="random" speedFactor="1.06" /><trip id="passenger_735088_enh_101" depart="1766.82" from="580815653#0" to="183689805#0" type="veh_passenger" color="0,255,255" departLane="best" departSpeed="max" departPos="random" speedFactor="1.09" /><trip id="passenger_735088_enh_102" depart="1840.70" from="651079990" to="561748193" type="veh_passenger" color="255,20,147" departLane="best" departSpeed="max" departPos="random" speedFactor="1.1" /><trip id="passenger_735088_enh_103" depart="1855.94" from="624604435#0" to="624604434" type="veh_passenger" color="255,255,255" departLane="best" departSpeed="max" departPos="random" speedFactor="0.96" /><trip id="passenger_735088_enh_104" depart="1869.02" from="561748189" to="183689805#0" type="veh_passenger" color="0,0,0" departLane="best" departSpeed="max" departPos="random" speedFactor="1.05" /><trip id="passenger_735088_enh_105" depart="2008.62" from="-678188678" to="561748193" type="veh_passenger" color="128,128,128" departLane="best" departSpeed="max" departPos="random" speedFactor="0.97" /><trip id="passenger_735088_enh_106" depart="2091.36" from="624604435#0" to="427550891#0" type="veh_passenger" color="255,165,0" departLane="best" departSpeed="max" departPos="random" speedFactor="1.05" /><trip id="passenger_735088_enh_107" depart="2096.50" from="561748193" to="573710409#0" type="veh_passenger" color="50,205,50" departLane="best" departSpeed="max" departPos="random" speedFactor="1.03" /><trip id="passenger_735088_enh_108" depart="2157.89" from="651079990" to="624604436" type="veh_passenger" color="0,128,0" departLane="best" departSpeed="max" departPos="random" speedFactor="0.99" /><trip id="passenger_735088_enh_109" depart="2235.38" from="651079990" to="1054125801" type="veh_passenger" color="50,205,50" departLane="best" departSpeed="max" departPos="random" speedFactor="1.02" /><trip id="passenger_735088_enh_110" depart="2274.91" from="651079990" to="683268248#0" type="veh_passenger" color="255,255,255" departLane="best" departSpeed="max" departPos="random" speedFactor="0.97" /><trip id="passenger_735088_enh_111" depart="2302.87" from="624604435#0" to="683268248#0" type="veh_passenger" color="128,0,128" departLane="best" departSpeed="max" departPos="random" speedFactor="0.97" /><trip id="passenger_735088_enh_112" depart="2334.93" from="158466192#0" to="624604434" type="veh_passenger" color="0,0,255" departLane="best" departSpeed="max" departPos="random" speedFactor="0.96" /><trip id="passenger_735088_enh_113" depart="2461.59" from="366949696" to="366952449#0" type="veh_passenger" color="255,165,0" departLane="best" departSpeed="max" departPos="random" speedFactor="0.97" /><trip id="passenger_735088_enh_114" depart="2505.29" from="580815653#0" to="158466192#0" type="veh_passenger" color="255,20,147" departLane="best" departSpeed="max" departPos="random" speedFactor="0.98" /><trip id="passenger_735088_enh_115" depart="2557.06" from="651079990" to="852188473" type="veh_passenger" color="139,69,19" departLane="best" departSpeed="max" departPos="random" speedFactor="0.95" /><trip id="passenger_735088_enh_116" depart="2610.69" from="366949696" to="158466192#0" type="veh_passenger" color="255,255,255" departLane="best" departSpeed="max" departPos="random" speedFactor="1.14" /><trip id="passenger_735088_enh_117" depart="2669.13" from="366949696" to="683268248#0" type="veh_passenger" color="255,255,255" departLane="best" departSpeed="max" departPos="random" speedFactor="0.89" /><trip id="passenger_735088_enh_118" depart="2693.40" from="561748193" to="683268248#0" type="veh_passenger" color="128,128,128" departLane="best" departSpeed="max" departPos="random" speedFactor="0.88" /><trip id="passenger_735088_enh_119" depart="2774.22" from="580815653#0" to="573710409#0" type="veh_passenger" color="0,128,0" departLane="best" departSpeed="max" departPos="random" speedFactor="1.0" /><trip id="passenger_735088_enh_120" depart="2799.43" from="561748193" to="366952449#0" type="veh_passenger" color="0,0,255" departLane="best" departSpeed="max" departPos="random" speedFactor="1.05" /><trip id="passenger_735088_enh_121" depart="2921.55" from="624604435#0" to="427550891#0" type="veh_passenger" color="128,128,128" departLane="best" departSpeed="max" departPos="random" speedFactor="1.07" /><trip id="passenger_735088_enh_122" depart="2923.28" from="870991319#0" to="366952449#0" type="veh_passenger" color="255,255,0" departLane="best" departSpeed="max" departPos="random" speedFactor="1.15" /><trip id="passenger_735088_enh_123" depart="3037.27" from="427551860" to="683268248#0" type="veh_passenger" color="0,0,255" departLane="best" departSpeed="max" departPos="random" speedFactor="1.09" /><trip id="passenger_735088_enh_124" depart="3058.29" from="624604435#0" to="683268248#0" type="veh_passenger" color="192,192,192" departLane="best" departSpeed="max" departPos="random" speedFactor="0.89" /><trip id="passenger_735088_enh_125" depart="3109.31" from="-678188678" to="1054125801" type="veh_passenger" color="0,0,0" departLane="best" departSpeed="max" departPos="random" speedFactor="1.0" /><trip id="passenger_735088_enh_126" depart="3125.25" from="366949696" to="427550891#0" type="veh_passenger" color="255,165,0" departLane="best" departSpeed="max" departPos="random" speedFactor="0.99" /><trip id="passenger_735088_enh_127" depart="3210.17" from="580815653#0" to="183689805#0" type="veh_passenger" color="0,0,0" departLane="best" departSpeed="max" departPos="random" speedFactor="1.04" /><trip id="passenger_735088_enh_128" depart="3255.68" from="580815653#0" to="624604434" type="veh_passenger" color="128,0,128" departLane="best" departSpeed="max" departPos="random" speedFactor="1.09" /><trip id="passenger_735088_enh_129" depart="3340.66" from="580815653#0" to="573710409#0" type="veh_passenger" color="255,255,0" departLane="best" departSpeed="max" departPos="random" speedFactor="1.1" /><trip id="passenger_735088_enh_130" depart="3369.07" from="366949696" to="366952449#0" type="veh_passenger" color="255,255,0" departLane="best" departSpeed="max" departPos="random" speedFactor="1.01" /><trip id="passenger_735088_enh_131" depart="3503.05" from="561748193" to="683268248#0" type="veh_passenger" color="0,0,0" departLane="best" departSpeed="max" departPos="random" speedFactor="0.94" /><trip id="passenger_735088_enh_132" depart="3520.04" from="651079990" to="683268248#0" type="veh_passenger" color="255,255,255" departLane="best" departSpeed="max" departPos="random" speedFactor="0.86" /><trip id="passenger_735088_enh_133" depart="3539.28" from="580815653#0" to="366952449#0" type="veh_passenger" color="0,128,0" departLane="best" departSpeed="max" departPos="random" speedFactor="0.99" /><trip id="passenger_735088_enh_134" depart="3548.69" from="651079990" to="624604434" type="veh_passenger" color="128,128,128" departLane="best" departSpeed="max" departPos="random" speedFactor="1.0" /></routes>