<?xml version="1.0" encoding="UTF-8"?>

<!-- generated on 2025-09-26 19:55:44 by Eclipse SUMO duarouter Version 1.24.0
<duarouterConfiguration xmlns:xsi="http://www.w3.org/2001/XMLSchema-instance" xsi:noNamespaceSchemaLocation="http://sumo.dlr.de/xsd/duarouterConfiguration.xsd">

    <input>
        <net-file value="C:/Users/kgaqu/OneDrive/Documents/4th Year/Capstone 2/v10/backend/networks/sm_molino_area/sm_molino_area.net.xml"/>
        <route-files value="C:/Users/kgaqu/AppData/Local/Temp/tmpfy4sb4rb.trips.xml"/>
    </input>

    <output>
        <output-file value="C:/Users/kgaqu/OneDrive/Documents/4th Year/Capstone 2/v10/backend/networks/sm_molino_area/routes/osm.enhanced.rou.xml"/>
    </output>

    <processing>
        <max-alternatives value="3"/>
        <remove-loops value="true"/>
        <weights.random-factor value="1.2"/>
        <route-choice-method value="gawron"/>
    </processing>

    <report>
        <ignore-errors value="true"/>
    </report>

</duarouterConfiguration>
-->

<routes xmlns:xsi="http://www.w3.org/2001/XMLSchema-instance" xsi:noNamespaceSchemaLocation="http://sumo.dlr.de/xsd/routes_file.xsd">
    <vType id="veh_passenger" maxSpeed="55.56" vClass="passenger" guiShape="passenger" color="grey" accel="2.6" decel="4.5"/>
    <vehicle id="vehicle_69" type="veh_passenger" depart="0.57" departLane="best" departPos="random" departSpeed="max" color="128,0,128" speedFactor="1.1500">
        <route edges="366949696 561748189 573710409#0 183689805#0 1054125801"/>
    </vehicle>
    <vehicle id="vehicle_51" type="veh_passenger" depart="1.00" departLane="best">
        <route edges="573710409#0 683268248#0"/>
    </vehicle>
    <vType id="truck_truck" length="10.00" maxSpeed="25.00" vClass="truck" guiShape="truck" color="white"/>
    <vehicle id="vehicle_258" type="truck_truck" depart="1.20" departLane="best" departPos="random" departSpeed="max" color="0,128,0" speedFactor="0.8900">
        <route edges="852188473 561748193 561748189 573710409#0 683268248#0"/>
    </vehicle>
    <vType id="motorcycle_motorcycle" length="2.50" maxSpeed="50.00" vClass="motorcycle" guiShape="motorcycle" color="red"/>
    <vehicle id="vehicle_341" type="motorcycle_motorcycle" depart="1.20" departLane="best" departPos="random" departSpeed="max" color="255,165,0" speedFactor="0.9700">
        <route edges="561748193 624604434"/>
    </vehicle>
    <vehicle id="vehicle_70" type="veh_passenger" depart="2.25" departLane="best" departPos="random" departSpeed="max" color="255,165,0" speedFactor="0.9200">
        <route edges="852188473 561748193 427550891#0"/>
    </vehicle>
    <vType id="bus_bus" length="12.00" maxSpeed="27.78" vClass="bus" guiShape="bus" color="yellow"/>
    <vehicle id="vehicle_158" type="bus_bus" depart="3.85" departLane="best" departPos="random" departSpeed="max" color="yellow" speedFactor="0.8600">
        <route edges="561748189 573710409#0 366952449#0"/>
    </vehicle>
    <vehicle id="vehicle_159" type="bus_bus" depart="8.46" departLane="best" departPos="random" departSpeed="max" color="255,165,0" speedFactor="0.8500">
        <route edges="366949696 561748189 573710409#0 158466192#0"/>
    </vehicle>
    <vehicle id="vehicle_71" type="veh_passenger" depart="9.11" departLane="best" departPos="random" departSpeed="max" color="black" speedFactor="0.9900">
        <route edges="642898747 158466192#0 624604436"/>
    </vehicle>
    <vehicle id="vehicle_160" type="bus_bus" depart="12.06" departLane="best" departPos="random" departSpeed="max" color="white" speedFactor="1.0000">
        <route edges="366949696 561748189"/>
    </vehicle>
    <vehicle id="vehicle_6" type="veh_passenger" depart="41.97" departLane="best" departSpeed="max">
        <route edges="870991319#0 624604435#0 366952449#0"/>
    </vehicle>
    <vehicle id="vehicle_217" type="truck_truck" depart="62.95" departLane="best" departSpeed="max">
        <route edges="870991319#0 624604435#0 683268248#0"/>
    </vehicle>
    <vehicle id="vehicle_37" type="veh_passenger" depart="83.94" departLane="best" departSpeed="max">
        <route edges="366949696 427550891#0"/>
    </vehicle>
    <vehicle id="vehicle_54" type="veh_passenger" depart="125.91" departLane="best" departSpeed="max">
        <route edges="651079990 642898747 683268248#0"/>
    </vehicle>
    <vehicle id="vehicle_140" type="bus_bus" depart="125.91" departLane="best" departSpeed="max">
        <route edges="870991319#0 624604435#0 683268248#0"/>
    </vehicle>
    <vehicle id="vehicle_327" type="motorcycle_motorcycle" depart="125.91" departLane="best" departSpeed="max">
        <route edges="580815653#0 158466192#0 624604436 852188473 561748193 624604434"/>
    </vehicle>
    <vehicle id="vehicle_72" type="veh_passenger" depart="165.54" departLane="best" departPos="random" departSpeed="max" color="128,0,128" speedFactor="0.9600">
        <route edges="-678188678 561748189 573710409#0 183689805#0 1054125801"/>
    </vehicle>
    <vehicle id="vehicle_52" type="veh_passenger" depart="167.87" departLane="best" departSpeed="max">
        <route edges="580815653#0 183689805#0 1054125801"/>
    </vehicle>
    <vehicle id="vehicle_161" type="bus_bus" depart="176.22" departLane="best" departPos="random" departSpeed="max" color="blue" speedFactor="1.0700">
        <route edges="-678188678 561748189"/>
    </vehicle>
    <vehicle id="vehicle_342" type="motorcycle_motorcycle" depart="180.47" departLane="best" departPos="random" departSpeed="max" color="white" speedFactor="0.9000">
        <route edges="870991319#0 624604435#0 158466192#0 624604436 852188473 561748193 561748189"/>
    </vehicle>
    <vehicle id="vehicle_259" type="truck_truck" depart="183.54" departLane="best" departPos="random" departSpeed="max" color="blue" speedFactor="0.9000">
        <route edges="580815653#0 183689805#0 1054125801"/>
    </vehicle>
    <vehicle id="vehicle_236" type="truck_truck" depart="188.86" departLane="best" departSpeed="max">
        <route edges="870991319#0 624604435#0 683268248#0"/>
    </vehicle>
    <vehicle id="vehicle_73" type="veh_passenger" depart="201.28" departLane="best" departPos="random" departSpeed="max" color="grey" speedFactor="1.0500">
        <route edges="573710409#0 183689805#0"/>
    </vehicle>
    <vehicle id="vehicle_17" type="veh_passenger" depart="209.84" departLane="best" departSpeed="max">
        <route edges="580815653#0 158466192#0 624604436 852188473 561748193 624604434"/>
    </vehicle>
    <vehicle id="vehicle_343" type="motorcycle_motorcycle" depart="234.39" departLane="best" departPos="random" departSpeed="max" color="yellow" speedFactor="0.8600">
        <route edges="852188473 561748193 561748189 573710409#0 683268248#0"/>
    </vehicle>
    <vehicle id="vehicle_260" type="truck_truck" depart="238.55" departLane="best" departPos="random" departSpeed="max" color="red" speedFactor="0.9700">
        <route edges="580815653#0 158466192#0 624604436 852188473"/>
    </vehicle>
    <vehicle id="vehicle_162" type="bus_bus" depart="242.13" departLane="best" departPos="random" departSpeed="max" color="yellow" speedFactor="1.0200">
        <route edges="158466192#0 624604436 852188473 561748193 624604434"/>
    </vehicle>
    <vehicle id="vehicle_74" type="veh_passenger" depart="244.87" departLane="best" departPos="random" departSpeed="max" color="139,69,19" speedFactor="0.9300">
        <route edges="580815653#0 366952449#0"/>
    </vehicle>
    <vehicle id="vehicle_27" type="veh_passenger" depart="251.81" departLane="best">
        <route edges="561748193 561748189 573710409#0 683268248#0"/>
    </vehicle>
    <vehicle id="vehicle_146" type="bus_bus" depart="251.81" departLane="best" departSpeed="max">
        <route edges="-678188678 561748189 573710409#0 683268248#0"/>
    </vehicle>
    <vehicle id="vehicle_254" type="truck_truck" depart="251.81" departLane="best" departSpeed="max">
        <route edges="-678188678 561748189 573710409#0 683268248#0"/>
    </vehicle>
    <vehicle id="vehicle_328" type="motorcycle_motorcycle" depart="251.81" departLane="best" departSpeed="max">
        <route edges="-678188678 561748189"/>
    </vehicle>
    <vehicle id="vehicle_163" type="bus_bus" depart="253.69" departLane="best" departPos="random" departSpeed="max" color="0,128,0" speedFactor="1.1400">
        <route edges="366949696 561748189 573710409#0 683268248#0"/>
    </vehicle>
    <vehicle id="vehicle_344" type="motorcycle_motorcycle" depart="254.87" departLane="best" departPos="random" departSpeed="max" color="128,0,128" speedFactor="1.0100">
        <route edges="-678188678 561748189 573710409#0 158466192#0"/>
    </vehicle>
    <vehicle id="vehicle_261" type="truck_truck" depart="259.53" departLane="best" departPos="random" departSpeed="max" color="yellow" speedFactor="1.0400">
        <route edges="-678188678 561748189 573710409#0 183689805#0 1054125801"/>
    </vehicle>
    <vehicle id="vehicle_75" type="veh_passenger" depart="314.85" departLane="best" departPos="random" departSpeed="max" color="grey" speedFactor="1.0200">
        <route edges="158466192#0 624604436 852188473 561748193 624604434"/>
    </vehicle>
    <vehicle id="vehicle_164" type="bus_bus" depart="329.52" departLane="best" departPos="random" departSpeed="max" color="white" speedFactor="0.9800">
        <route edges="366949696 561748189 573710409#0"/>
    </vehicle>
    <vehicle id="vehicle_30" type="veh_passenger" depart="335.75" departLane="best">
        <route edges="642898747 158466192#0 624604436 852188473 561748193 624604434"/>
    </vehicle>
    <vehicle id="vehicle_345" type="motorcycle_motorcycle" depart="340.92" departLane="best" departPos="random" departSpeed="max" color="black" speedFactor="0.9900">
        <route edges="624604436 852188473 561748193 427550891#0"/>
    </vehicle>
    <vehicle id="vehicle_262" type="truck_truck" depart="347.06" departLane="best" departPos="random" departSpeed="max" color="grey" speedFactor="0.9000">
        <route edges="-678188678 561748189 573710409#0 183689805#0"/>
    </vehicle>
    <vehicle id="vehicle_29" type="veh_passenger" depart="377.72" departLane="best" departSpeed="max">
        <route edges="366949696 561748189 573710409#0 366952449#0"/>
    </vehicle>
    <vehicle id="vehicle_137" type="bus_bus" depart="377.72" departLane="best" departSpeed="max">
        <route edges="580815653#0 158466192#0 624604436 852188473 561748193 624604434"/>
    </vehicle>
    <vehicle id="vehicle_238" type="truck_truck" depart="377.72" departLane="best" departSpeed="max">
        <route edges="-678188678 561748189 573710409#0 683268248#0"/>
    </vehicle>
    <vehicle id="vehicle_320" type="motorcycle_motorcycle" depart="377.72" departLane="best">
        <route edges="573710409#0 683268248#0"/>
    </vehicle>
    <vehicle id="vehicle_68" type="veh_passenger" depart="381.16" departLane="best" departPos="random" departSpeed="max" color="128,0,128" speedFactor="0.9300">
        <route edges="427551860 624604436 852188473 561748193 561748189 573710409#0 683268248#0"/>
    </vehicle>
    <vehicle id="vehicle_76" type="veh_passenger" depart="417.94" departLane="best" departPos="random" departSpeed="max" color="grey" speedFactor="0.9000">
        <route edges="624604435#0 183689805#0 1054125801"/>
    </vehicle>
    <vehicle id="vehicle_2" type="veh_passenger" depart="419.68" departLane="best">
        <route edges="561748193 561748189 573710409#0 683268248#0"/>
    </vehicle>
    <vehicle id="vehicle_77" type="veh_passenger" depart="436.27" departLane="best" departPos="random" departSpeed="max" color="255,20,147" speedFactor="1.1500">
        <route edges="-678188678 561748189 573710409#0 158466192#0 624604436"/>
    </vehicle>
    <vehicle id="vehicle_229" type="truck_truck" depart="440.67" departLane="best" departSpeed="max">
        <route edges="580815653#0 158466192#0 624604436 852188473 561748193 427550891#0"/>
    </vehicle>
    <vehicle id="vehicle_346" type="motorcycle_motorcycle" depart="448.49" departLane="best" departPos="random" departSpeed="max" color="128,0,128" speedFactor="0.9600">
        <route edges="427551860 624604436 852188473 561748193"/>
    </vehicle>
    <vehicle id="vehicle_347" type="motorcycle_motorcycle" depart="451.07" departLane="best" departPos="random" departSpeed="max" color="blue" speedFactor="1.0500">
        <route edges="-678188678 561748189 573710409#0 158466192#0 624604436"/>
    </vehicle>
    <vehicle id="vehicle_165" type="bus_bus" depart="451.71" departLane="best" departPos="random" departSpeed="max" color="255,165,0" speedFactor="0.8800">
        <route edges="427551860 624604436 852188473 561748193 624604434"/>
    </vehicle>
    <vehicle id="vehicle_263" type="truck_truck" depart="456.34" departLane="best" departPos="random" departSpeed="max" color="black" speedFactor="0.8600">
        <route edges="651079990 642898747 183689805#0 1054125801"/>
    </vehicle>
    <vehicle id="vehicle_264" type="truck_truck" depart="459.40" departLane="best" departPos="random" departSpeed="max" color="red" speedFactor="1.0100">
        <route edges="870991319#0 624604435#0 683268248#0"/>
    </vehicle>
    <vehicle id="vehicle_60" type="veh_passenger" depart="461.65" departLane="best" departSpeed="max">
        <route edges="580815653#0 183689805#0 1054125801"/>
    </vehicle>
    <vehicle id="vehicle_78" type="veh_passenger" depart="467.97" departLane="best" departPos="random" departSpeed="max" color="yellow" speedFactor="0.9900">
        <route edges="651079990 642898747 158466192#0 624604436 852188473"/>
    </vehicle>
    <vehicle id="vehicle_79" type="veh_passenger" depart="470.41" departLane="best" departPos="random" departSpeed="max" color="50,205,50" speedFactor="0.8600">
        <route edges="651079990 642898747 158466192#0 624604436 852188473 561748193 427550891#0"/>
    </vehicle>
    <vehicle id="vehicle_65" type="veh_passenger" depart="503.62" departLane="best" departSpeed="max">
        <route edges="366949696 561748189 573710409#0 158466192#0"/>
    </vehicle>
    <vehicle id="vehicle_139" type="bus_bus" depart="503.62" departLane="best" departSpeed="max">
        <route edges="580815653#0 158466192#0 624604436 852188473 561748193 624604434"/>
    </vehicle>
    <vehicle id="vehicle_230" type="truck_truck" depart="503.62" departLane="best" departSpeed="max">
        <route edges="580815653#0 158466192#0 624604436 852188473 561748193 427550891#0"/>
    </vehicle>
    <vehicle id="vehicle_316" type="motorcycle_motorcycle" depart="503.62" departLane="best" departSpeed="max">
        <route edges="580815653#0 366952449#0"/>
    </vehicle>
    <vehicle id="vehicle_348" type="motorcycle_motorcycle" depart="505.80" departLane="best" departPos="random" departSpeed="max" color="yellow" speedFactor="0.8900">
        <route edges="561748193 561748189 573710409#0 183689805#0"/>
    </vehicle>
    <vehicle id="vehicle_166" type="bus_bus" depart="509.78" departLane="best" departPos="random" departSpeed="max" color="grey" speedFactor="0.9200">
        <route edges="366949696 561748189"/>
    </vehicle>
    <vehicle id="vehicle_349" type="motorcycle_motorcycle" depart="510.08" departLane="best" departPos="random" departSpeed="max" color="blue" speedFactor="0.9000">
        <route edges="561748193 427550891#0"/>
    </vehicle>
    <vehicle id="vehicle_265" type="truck_truck" depart="515.01" departLane="best" departPos="random" departSpeed="max" color="0,128,0" speedFactor="0.8900">
        <route edges="573710409#0 683268248#0"/>
    </vehicle>
    <vehicle id="vehicle_266" type="truck_truck" depart="519.41" departLane="best" departPos="random" departSpeed="max" color="0,128,0" speedFactor="1.0000">
        <route edges="624604436 852188473 561748193 561748189 573710409#0 683268248#0"/>
    </vehicle>
    <vehicle id="vehicle_167" type="bus_bus" depart="521.57" departLane="best" departPos="random" departSpeed="max" color="255,165,0" speedFactor="1.1100">
        <route edges="651079990 642898747 158466192#0 624604436 852188473 561748193 624604434"/>
    </vehicle>
    <vehicle id="vehicle_213" type="truck_truck" depart="566.57" departLane="best" departSpeed="max">
        <route edges="870991319#0 624604435#0 683268248#0"/>
    </vehicle>
    <vehicle id="vehicle_20" type="veh_passenger" depart="587.56" departLane="best" departSpeed="max">
        <route edges="580815653#0 158466192#0 624604436 852188473 561748193 427550891#0"/>
    </vehicle>
    <vehicle id="vehicle_80" type="veh_passenger" depart="622.78" departLane="best" departPos="random" departSpeed="max" color="black" speedFactor="1.1000">
        <route edges="624604435#0 683268248#0"/>
    </vehicle>
    <vehicle id="vehicle_81" type="veh_passenger" depart="625.20" departLane="best" departPos="random" departSpeed="max" color="cyan" speedFactor="1.1400">
        <route edges="580815653#0 158466192#0 624604436 852188473"/>
    </vehicle>
    <vehicle id="vehicle_62" type="veh_passenger" depart="629.53" departLane="best">
        <route edges="158466192#0 624604436 852188473 561748193 624604434"/>
    </vehicle>
    <vehicle id="vehicle_147" type="bus_bus" depart="629.53" departLane="best" departSpeed="max">
        <route edges="580815653#0 158466192#0 624604436 852188473 561748193 427550891#0"/>
    </vehicle>
    <vehicle id="vehicle_225" type="truck_truck" depart="629.53" departLane="best" departSpeed="max">
        <route edges="366949696 561748189 573710409#0 683268248#0"/>
    </vehicle>
    <vehicle id="vehicle_325" type="motorcycle_motorcycle" depart="629.53" departLane="best">
        <route edges="573710409#0 158466192#0"/>
    </vehicle>
    <vehicle id="vehicle_33" type="veh_passenger" depart="671.49" departLane="best">
        <route edges="573710409#0 683268248#0"/>
    </vehicle>
    <vehicle id="vehicle_168" type="bus_bus" depart="688.17" departLane="best" departPos="random" departSpeed="max" color="0,128,0" speedFactor="1.1100">
        <route edges="580815653#0 158466192#0 624604436 852188473 561748193 561748189"/>
    </vehicle>
    <vehicle id="vehicle_218" type="truck_truck" depart="692.48" departLane="best" departSpeed="max">
        <route edges="366949696 561748189 573710409#0 683268248#0"/>
    </vehicle>
    <vehicle id="vehicle_82" type="veh_passenger" depart="692.92" departLane="best" departPos="random" departSpeed="max" color="50,205,50" speedFactor="0.9200">
        <route edges="183689805#0 1054125801"/>
    </vehicle>
    <vehicle id="vehicle_169" type="bus_bus" depart="697.68" departLane="best" departPos="random" departSpeed="max" color="white" speedFactor="1.0600">
        <route edges="870991319#0 624604435#0 366952449#0"/>
    </vehicle>
    <vehicle id="vehicle_350" type="motorcycle_motorcycle" depart="700.91" departLane="best" departPos="random" departSpeed="max" color="255,165,0" speedFactor="0.9500">
        <route edges="580815653#0 366952449#0"/>
    </vehicle>
    <vehicle id="vehicle_351" type="motorcycle_motorcycle" depart="702.64" departLane="best" departPos="random" departSpeed="max" color="black" speedFactor="1.1100">
        <route edges="852188473 561748193 561748189 573710409#0 183689805#0 1054125801"/>
    </vehicle>
    <vehicle id="vehicle_267" type="truck_truck" depart="713.19" departLane="best" departPos="random" departSpeed="max" color="blue" speedFactor="0.8700">
        <route edges="561748189 573710409#0 366952449#0"/>
    </vehicle>
    <vehicle id="vehicle_66" type="veh_passenger" depart="713.46" departLane="best" departSpeed="max">
        <route edges="580815653#0 158466192#0"/>
    </vehicle>
    <vehicle id="vehicle_268" type="truck_truck" depart="715.12" departLane="best" departPos="random" departSpeed="max" color="red" speedFactor="1.0400">
        <route edges="624604435#0 683268248#0"/>
    </vehicle>
    <vehicle id="vehicle_49" type="veh_passenger" depart="755.43" departLane="best" departSpeed="max">
        <route edges="366949696 427550891#0"/>
    </vehicle>
    <vehicle id="vehicle_138" type="bus_bus" depart="755.43" departLane="best" departSpeed="max">
        <route edges="580815653#0 158466192#0 624604436 852188473 561748193 427550891#0"/>
    </vehicle>
    <vehicle id="vehicle_322" type="motorcycle_motorcycle" depart="755.43" departLane="best">
        <route edges="624604435#0 158466192#0 624604436 852188473 561748193 624604434"/>
    </vehicle>
    <vehicle id="vehicle_352" type="motorcycle_motorcycle" depart="769.79" departLane="best" departPos="random" departSpeed="max" color="yellow" speedFactor="0.9000">
        <route edges="-678188678 561748189 573710409#0 158466192#0 624604436 852188473"/>
    </vehicle>
    <vehicle id="vehicle_83" type="veh_passenger" depart="774.42" departLane="best" departPos="random" departSpeed="max" color="white" speedFactor="0.9600">
        <route edges="870991319#0 427551860 624604436 852188473 561748193 561748189"/>
    </vehicle>
    <vehicle id="vehicle_255" type="truck_truck" depart="779.47" departLane="best" departPos="random" departSpeed="max" color="yellow" speedFactor="1.1200">
        <route edges="580815653#0 366952449#0"/>
    </vehicle>
    <vehicle id="vehicle_170" type="bus_bus" depart="783.40" departLane="best" departPos="random" departSpeed="max" color="yellow" speedFactor="1.0100">
        <route edges="624604435#0 683268248#0"/>
    </vehicle>
    <vehicle id="vehicle_269" type="truck_truck" depart="783.79" departLane="best" departPos="random" departSpeed="max" color="white" speedFactor="0.8700">
        <route edges="366949696 561748189 573710409#0 683268248#0"/>
    </vehicle>
    <vehicle id="vehicle_11" type="veh_passenger" depart="797.40" departLane="best" departSpeed="max">
        <route edges="580815653#0 158466192#0 624604436 852188473 561748193 624604434"/>
    </vehicle>
    <vehicle id="vehicle_250" type="truck_truck" depart="818.38" departLane="best" departSpeed="max">
        <route edges="870991319#0 624604435#0 683268248#0"/>
    </vehicle>
    <vehicle id="vehicle_84" type="veh_passenger" depart="830.64" departLane="best" departPos="random" departSpeed="max" color="139,69,19" speedFactor="0.8900">
        <route edges="366949696 561748189 573710409#0 183689805#0 1054125801"/>
    </vehicle>
    <vehicle id="vehicle_171" type="bus_bus" depart="861.34" departLane="best" departPos="random" departSpeed="max" color="255,165,0" speedFactor="1.0400">
        <route edges="561748189 573710409#0 366952449#0"/>
    </vehicle>
    <vehicle id="vehicle_353" type="motorcycle_motorcycle" depart="872.32" departLane="best" departPos="random" departSpeed="max" color="red" speedFactor="1.1100">
        <route edges="580815653#0 158466192#0"/>
    </vehicle>
    <vehicle id="vehicle_354" type="motorcycle_motorcycle" depart="872.91" departLane="best" departPos="random" departSpeed="max" color="red" speedFactor="0.9600">
        <route edges="573710409#0 158466192#0 624604436 852188473 561748193"/>
    </vehicle>
    <vehicle id="vehicle_13" type="veh_passenger" depart="881.34" departLane="best" departSpeed="max">
        <route edges="366949696 561748189 573710409#0 366952449#0"/>
    </vehicle>
    <vehicle id="vehicle_152" type="bus_bus" depart="881.34" departLane="best" departSpeed="max">
        <route edges="870991319#0 624604435#0 683268248#0"/>
    </vehicle>
    <vehicle id="vehicle_235" type="truck_truck" depart="881.34" departLane="best" departSpeed="max">
        <route edges="870991319#0 624604435#0 683268248#0"/>
    </vehicle>
    <vehicle id="vehicle_85" type="veh_passenger" depart="885.72" departLane="best" departPos="random" departSpeed="max" color="192,192,192" speedFactor="0.8800">
        <route edges="870991319#0 624604435#0 683268248#0"/>
    </vehicle>
    <vehicle id="vehicle_270" type="truck_truck" depart="888.04" departLane="best" departPos="random" departSpeed="max" color="yellow" speedFactor="0.8800">
        <route edges="573710409#0 683268248#0"/>
    </vehicle>
    <vehicle id="vehicle_271" type="truck_truck" depart="888.26" departLane="best" departPos="random" departSpeed="max" color="black" speedFactor="1.0800">
        <route edges="580815653#0 183689805#0 1054125801"/>
    </vehicle>
    <vehicle id="vehicle_86" type="veh_passenger" depart="908.11" departLane="best" departPos="random" departSpeed="max" color="139,69,19" speedFactor="0.8700">
        <route edges="580815653#0 366952449#0"/>
    </vehicle>
    <vehicle id="vehicle_87" type="veh_passenger" depart="920.29" departLane="best" departPos="random" departSpeed="max" color="white" speedFactor="1.0900">
        <route edges="366949696 561748189 573710409#0 158466192#0 624604436"/>
    </vehicle>
    <vehicle id="vehicle_8" type="veh_passenger" depart="923.31" departLane="best" departSpeed="max">
        <route edges="366949696 561748189 573710409#0"/>
    </vehicle>
    <vehicle id="vehicle_172" type="bus_bus" depart="924.10" departLane="best" departPos="random" departSpeed="max" color="red" speedFactor="1.0900">
        <route edges="651079990 642898747 683268248#0"/>
    </vehicle>
    <vehicle id="vehicle_355" type="motorcycle_motorcycle" depart="926.34" departLane="best" departPos="random" departSpeed="max" color="black" speedFactor="0.9100">
        <route edges="580815653#0 158466192#0"/>
    </vehicle>
    <vehicle id="vehicle_272" type="truck_truck" depart="942.98" departLane="best" departPos="random" departSpeed="max" color="red" speedFactor="0.9500">
        <route edges="580815653#0 158466192#0 624604436 852188473"/>
    </vehicle>
    <vehicle id="vehicle_244" type="truck_truck" depart="944.29" departLane="best" departSpeed="max">
        <route edges="870991319#0 624604435#0 683268248#0"/>
    </vehicle>
    <vehicle id="vehicle_9" type="veh_passenger" depart="965.27" departLane="best" departSpeed="max">
        <route edges="580815653#0 158466192#0 624604436"/>
    </vehicle>
    <vehicle id="vehicle_42" type="veh_passenger" depart="1007.24" departLane="best">
        <route edges="561748189 573710409#0 366952449#0"/>
    </vehicle>
    <vehicle id="vehicle_156" type="bus_bus" depart="1007.24" departLane="best" departSpeed="max">
        <route edges="580815653#0 158466192#0 624604436 852188473"/>
    </vehicle>
    <vehicle id="vehicle_237" type="truck_truck" depart="1007.24" departLane="best" departSpeed="max">
        <route edges="-678188678 561748189 573710409#0 683268248#0"/>
    </vehicle>
    <vehicle id="vehicle_323" type="motorcycle_motorcycle" depart="1007.24" departLane="best">
        <route edges="573710409#0 183689805#0 1054125801"/>
    </vehicle>
    <vehicle id="vehicle_173" type="bus_bus" depart="1018.61" departLane="best" departPos="random" departSpeed="max" color="0,128,0" speedFactor="1.0300">
        <route edges="870991319#0 624604435#0 366952449#0"/>
    </vehicle>
    <vehicle id="vehicle_356" type="motorcycle_motorcycle" depart="1037.23" departLane="best" departPos="random" departSpeed="max" color="blue" speedFactor="0.8800">
        <route edges="642898747 183689805#0"/>
    </vehicle>
    <vehicle id="vehicle_357" type="motorcycle_motorcycle" depart="1038.04" departLane="best" departPos="random" departSpeed="max" color="red" speedFactor="0.9800">
        <route edges="624604436 852188473 561748193 561748189 573710409#0 683268248#0"/>
    </vehicle>
    <vehicle id="vehicle_88" type="veh_passenger" depart="1038.85" departLane="best" departPos="random" departSpeed="max" color="black" speedFactor="0.9900">
        <route edges="651079990 642898747 158466192#0 624604436 852188473 561748193 624604434"/>
    </vehicle>
    <vehicle id="vehicle_174" type="bus_bus" depart="1052.84" departLane="best" departPos="random" departSpeed="max" color="yellow" speedFactor="1.0000">
        <route edges="561748189 573710409#0 683268248#0"/>
    </vehicle>
    <vehicle id="vehicle_273" type="truck_truck" depart="1055.89" departLane="best" departPos="random" departSpeed="max" color="grey" speedFactor="1.1100">
        <route edges="580815653#0 183689805#0 1054125801"/>
    </vehicle>
    <vehicle id="vehicle_274" type="truck_truck" depart="1056.46" departLane="best" departPos="random" departSpeed="max" color="black" speedFactor="0.9000">
        <route edges="580815653#0 158466192#0 624604436 852188473 561748193 427550891#0"/>
    </vehicle>
    <vehicle id="vehicle_89" type="veh_passenger" depart="1066.20" departLane="best" departPos="random" departSpeed="max" color="255,165,0" speedFactor="0.8600">
        <route edges="580815653#0 158466192#0 624604436 852188473 561748193"/>
    </vehicle>
    <vehicle id="vehicle_5" type="veh_passenger" depart="1091.18" departLane="best" departSpeed="max">
        <route edges="366949696 427550891#0"/>
    </vehicle>
    <vehicle id="vehicle_7" type="veh_passenger" depart="1133.15" departLane="best">
        <route edges="573710409#0 683268248#0"/>
    </vehicle>
    <vehicle id="vehicle_154" type="bus_bus" depart="1133.15" departLane="best" departSpeed="max">
        <route edges="366949696 561748189 573710409#0 683268248#0"/>
    </vehicle>
    <vehicle id="vehicle_216" type="truck_truck" depart="1133.15" departLane="best" departSpeed="max">
        <route edges="-678188678 561748189 573710409#0 683268248#0"/>
    </vehicle>
    <vehicle id="vehicle_321" type="motorcycle_motorcycle" depart="1133.15" departLane="best">
        <route edges="852188473 561748193 624604434"/>
    </vehicle>
    <vehicle id="vehicle_175" type="bus_bus" depart="1155.11" departLane="best" departPos="random" departSpeed="max" color="red" speedFactor="1.0700">
        <route edges="580815653#0 366952449#0"/>
    </vehicle>
    <vehicle id="vehicle_90" type="veh_passenger" depart="1165.87" departLane="best" departPos="random" departSpeed="max" color="red" speedFactor="0.9100">
        <route edges="561748189 573710409#0 183689805#0 1054125801"/>
    </vehicle>
    <vehicle id="vehicle_358" type="motorcycle_motorcycle" depart="1165.90" departLane="best" departPos="random" departSpeed="max" color="black" speedFactor="0.9900">