<?xml version="1.0" encoding="UTF-8"?>

<!-- generated on 2025-09-03 00:55:19.507164 by osmWebWizard.py v1_24_0+0000-b72eb3fabc8
<configuration>
    <net-file value="C:\Users\kgaqu\OneDrive\Documents\4th Year\Capstone 2\v10\osm_importer\osm_scenarios\2025-09-03-00-55-13\osm.net.xml.gz"/>
    <output-trip-file value="C:\Users\kgaqu\OneDrive\Documents\4th Year\Capstone 2\v10\osm_importer\osm_scenarios\2025-09-03-00-55-13\osm.truck.trips.xml"/>
    <route-file value="C:\Users\kgaqu\OneDrive\Documents\4th Year\Capstone 2\v10\osm_importer\osm_scenarios\2025-09-03-00-55-13\osm.truck.rou.xml"/>
    <prefix value="truck"/>
    <trip-attributes value="departLane=&quot;best&quot;"/>
    <fringe-start-attributes value="departSpeed=&quot;max&quot;"/>
    <vehicle-class value="truck"/>
    <fringe-factor value="5"/>
    <edge-permission value="truck"/>
    <via-edge-types value="highway.motorway,highway.motorway_link,highway.trunk_link,highway.primary_link,highway.secondary_link,highway.tertiary_link"/>
    <seed value="47"/>
    <min-distance value="600.0"/>
    <min-distance.fringe value="10.0"/>
    <remove-loops value="True"/>
    <insertion-density value="8.0"/>
</configuration>
-->

<routes xmlns:xsi="http://www.w3.org/2001/XMLSchema-instance" xsi:noNamespaceSchemaLocation="http://sumo.dlr.de/xsd/routes_file.xsd">
    <vType id="truck_truck" vClass="truck"/>
    <trip id="truck0" depart="0.00" from="183685561" to="427551889#0" departLane="best" type="truck_truck" departSpeed="max"/>
    <trip id="truck1" depart="39.64" from="1072529522#0" to="993441704" departLane="best" type="truck_truck" departSpeed="max"/>
    <trip id="truck2" depart="79.29" from="-678188678" to="427551889#0" departLane="best" type="truck_truck" departSpeed="max"/>
    <trip id="truck3" depart="118.93" from="1180214148" to="683268239" departLane="best" type="truck_truck" departSpeed="max"/>
    <trip id="truck4" depart="158.58" from="366960815" to="683268248#0" departLane="best" type="truck_truck" departSpeed="max"/>
    <trip id="truck5" depart="198.22" from="642896763" to="775185678" departLane="best" type="truck_truck" departSpeed="max"/>
    <trip id="truck6" depart="237.87" from="870991328" to="427550891#0" departLane="best" type="truck_truck" departSpeed="max"/>
    <trip id="truck7" depart="277.51" from="1033158919#0" to="580815652" departLane="best" type="truck_truck"/>
    <trip id="truck8" depart="317.16" from="366960815" to="993441704" departLane="best" type="truck_truck" departSpeed="max"/>
    <trip id="truck9" depart="356.80" from="183685561" to="427551889#0" departLane="best" type="truck_truck" departSpeed="max"/>
    <trip id="truck10" depart="396.44" from="1072529522#0" to="580815652" departLane="best" type="truck_truck" departSpeed="max"/>
    <trip id="truck11" depart="436.09" from="183685561" to="651080031" departLane="best" type="truck_truck" departSpeed="max"/>
    <trip id="truck12" depart="475.73" from="1033158919#0" to="993441704" departLane="best" type="truck_truck"/>
    <trip id="truck13" depart="515.38" from="870991328" to="427550891#0" departLane="best" type="truck_truck" departSpeed="max"/>
    <trip id="truck14" depart="555.02" from="183685561" to="624604434" departLane="best" type="truck_truck" departSpeed="max"/>
    <trip id="truck15" depart="594.67" from="183685561" to="427550891#0" departLane="best" type="truck_truck" departSpeed="max"/>
    <trip id="truck16" depart="634.31" from="-678188678" to="427551889#0" departLane="best" type="truck_truck" departSpeed="max"/>
    <trip id="truck17" depart="673.95" from="624604436" to="580815652" departLane="best" type="truck_truck"/>
    <trip id="truck18" depart="713.60" from="1033158919#0" to="580815652" departLane="best" type="truck_truck"/>
    <trip id="truck19" depart="753.24" from="183685561" to="651080031" departLane="best" type="truck_truck" departSpeed="max"/>
    <trip id="truck20" depart="792.89" from="1033158925" to="993441704" departLane="best" type="truck_truck"/>
    <trip id="truck21" depart="832.53" from="870991328" to="427550891#0" departLane="best" type="truck_truck" departSpeed="max"/>
    <trip id="truck22" depart="872.18" from="-678188678" to="427551889#0" departLane="best" type="truck_truck" departSpeed="max"/>
    <trip id="truck23" depart="911.82" from="183685561" to="561748193" departLane="best" type="truck_truck" departSpeed="max"/>
    <trip id="truck24" depart="951.47" from="183685561" to="1054125801" departLane="best" type="truck_truck" departSpeed="max"/>
    <trip id="truck25" depart="991.11" from="366960815" to="580815652" departLane="best" type="truck_truck" departSpeed="max"/>
    <trip id="truck26" depart="1030.75" from="870991328" to="580815652" departLane="best" type="truck_truck" departSpeed="max"/>
    <trip id="truck27" depart="1070.40" from="870991328" to="427550891#0" departLane="best" type="truck_truck" departSpeed="max"/>
    <trip id="truck28" depart="1110.04" from="870991328" to="580815652" departLane="best" type="truck_truck" departSpeed="max"/>
    <trip id="truck29" depart="1149.69" from="993441703" to="427551889#0" departLane="best" type="truck_truck" departSpeed="max"/>
    <trip id="truck30" depart="1189.33" from="870991328" to="993441704" departLane="best" type="truck_truck" departSpeed="max"/>
    <trip id="truck31" depart="1228.98" from="366960815" to="993441704" departLane="best" type="truck_truck" departSpeed="max"/>
    <trip id="truck32" depart="1268.62" from="870991328" to="427550891#0" departLane="best" type="truck_truck" departSpeed="max"/>
    <trip id="truck33" depart="1308.27" from="642896763" to="775185678" departLane="best" type="truck_truck" departSpeed="max"/>
    <trip id="truck34" depart="1347.91" from="183685561" to="1072529521" departLane="best" type="truck_truck" departSpeed="max"/>
    <trip id="truck35" depart="1387.55" from="993441703" to="427551889#0" departLane="best" type="truck_truck" departSpeed="max"/>
    <trip id="truck36" depart="1427.20" from="580815653#0" to="366949696" departLane="best" type="truck_truck"/>
    <trip id="truck37" depart="1466.84" from="366960815" to="993441704" departLane="best" type="truck_truck" departSpeed="max"/>
    <trip id="truck38" depart="1506.49" from="993441703" to="427551889#0" departLane="best" type="truck_truck" departSpeed="max"/>
    <trip id="truck39" depart="1546.13" from="870991328" to="993441704" departLane="best" type="truck_truck" departSpeed="max"/>
    <trip id="truck40" depart="1585.78" from="624604434" to="580815652" departLane="best" type="truck_truck"/>
    <trip id="truck41" depart="1625.42" from="624604434" to="580815652" departLane="best" type="truck_truck"/>
    <trip id="truck42" depart="1665.06" from="870991328" to="427550891#0" departLane="best" type="truck_truck" departSpeed="max"/>
    <trip id="truck43" depart="1704.71" from="993441703" to="427551889#0" departLane="best" type="truck_truck" departSpeed="max"/>
    <trip id="truck44" depart="1744.35" from="1072529522#0" to="993441704" departLane="best" type="truck_truck" departSpeed="max"/>
    <trip id="truck45" depart="1784.00" from="1033158919#0" to="993441704" departLane="best" type="truck_truck"/>
    <trip id="truck46" depart="1823.64" from="993441703" to="427551889#0" departLane="best" type="truck_truck" departSpeed="max"/>
    <trip id="truck47" depart="1863.29" from="561748189" to="580815652" departLane="best" type="truck_truck"/>
    <trip id="truck48" depart="1902.93" from="366960815" to="580815652" departLane="best" type="truck_truck" departSpeed="max"/>
    <trip id="truck49" depart="1942.58" from="642896763" to="775185678" departLane="best" type="truck_truck" departSpeed="max"/>
    <trip id="truck50" depart="1982.22" from="993441703" to="427551889#0" departLane="best" type="truck_truck" departSpeed="max"/>
    <trip id="truck51" depart="2021.86" from="183685561" to="427550891#0" departLane="best" type="truck_truck" departSpeed="max"/>
    <trip id="truck52" depart="2061.51" from="183685561" to="1054125801" departLane="best" type="truck_truck" departSpeed="max"/>
    <trip id="truck53" depart="2101.15" from="624604434" to="580815652" departLane="best" type="truck_truck"/>
    <trip id="truck54" depart="2140.80" from="624604434" to="580815652" departLane="best" type="truck_truck"/>
    <trip id="truck55" depart="2180.44" from="1072529522#0" to="580815652" departLane="best" type="truck_truck" departSpeed="max"/>
    <trip id="truck56" depart="2220.09" from="1072529522#0" to="993441704" departLane="best" type="truck_truck" departSpeed="max"/>
    <trip id="truck57" depart="2259.73" from="183685561" to="1072529521" departLane="best" type="truck_truck" departSpeed="max"/>
    <trip id="truck58" depart="2299.38" from="366960815" to="580815652" departLane="best" type="truck_truck" departSpeed="max"/>
    <trip id="truck59" depart="2339.02" from="1180214148" to="683268239" departLane="best" type="truck_truck" departSpeed="max"/>
    <trip id="truck60" depart="2378.66" from="183685561" to="427550891#0" departLane="best" type="truck_truck" departSpeed="max"/>
    <trip id="truck61" depart="2418.31" from="1033158923#0" to="580815652" departLane="best" type="truck_truck"/>
    <trip id="truck62" depart="2457.95" from="183685561" to="1072529521" departLane="best" type="truck_truck" departSpeed="max"/>
    <trip id="truck63" depart="2497.60" from="624604434" to="683268248#0" departLane="best" type="truck_truck"/>
    <trip id="truck64" depart="2537.24" from="870991328" to="427550891#0" departLane="best" type="truck_truck" departSpeed="max"/>
    <trip id="truck65" depart="2576.89" from="366960815" to="993441704" departLane="best" type="truck_truck" departSpeed="max"/>
    <trip id="truck66" depart="2616.53" from="-678188678" to="580815652" departLane="best" type="truck_truck" departSpeed="max"/>
    <trip id="truck67" depart="2656.17" from="183685561" to="561748193" departLane="best" type="truck_truck" departSpeed="max"/>
    <trip id="truck68" depart="2695.82" from="-678188678" to="580815652" departLane="best" type="truck_truck" departSpeed="max"/>
    <trip id="truck69" depart="2735.46" from="870991328" to="427550891#0" departLane="best" type="truck_truck" departSpeed="max"/>
    <trip id="truck70" depart="2775.11" from="366960815" to="993441704" departLane="best" type="truck_truck" departSpeed="max"/>
    <trip id="truck71" depart="2814.75" from="366960815" to="580815652" departLane="best" type="truck_truck" departSpeed="max"/>
    <trip id="truck72" depart="2854.40" from="-678188678" to="580815652" departLane="best" type="truck_truck" departSpeed="max"/>
    <trip id="truck73" depart="2894.04" from="183685561" to="651080031" departLane="best" type="truck_truck" departSpeed="max"/>
    <trip id="truck74" depart="2933.69" from="366960815" to="580815652" departLane="best" type="truck_truck" departSpeed="max"/>
    <trip id="truck75" depart="2973.33" from="580815653#0" to="624604434" departLane="best" type="truck_truck"/>
    <trip id="truck76" depart="3012.97" from="183685561" to="1072529521" departLane="best" type="truck_truck" departSpeed="max"/>
    <trip id="truck77" depart="3052.62" from="993441703" to="427551889#0" departLane="best" type="truck_truck" departSpeed="max"/>
    <trip id="truck78" depart="3092.26" from="-678188678" to="580815652" departLane="best" type="truck_truck" departSpeed="max"/>
    <trip id="truck79" depart="3131.91" from="183685561" to="651080031" departLane="best" type="truck_truck" departSpeed="max"/>
    <trip id="truck80" depart="3171.55" from="-678188678" to="427551889#0" departLane="best" type="truck_truck" departSpeed="max"/>
    <trip id="truck81" depart="3211.20" from="1072529522#0" to="993441704" departLane="best" type="truck_truck" departSpeed="max"/>
    <trip id="truck82" depart="3250.84" from="-678188678" to="427551889#0" departLane="best" type="truck_truck" departSpeed="max"/>
    <trip id="truck83" depart="3290.49" from="183685561" to="1072529521" departLane="best" type="truck_truck" departSpeed="max"/>
    <trip id="truck84" depart="3330.13" from="1072529522#0" to="993441704" departLane="best" type="truck_truck" departSpeed="max"/>
    <trip id="truck85" depart="3369.77" from="870991328" to="993441704" departLane="best" type="truck_truck" departSpeed="max"/>
    <trip id="truck86" depart="3409.42" from="1033158925" to="580815652" departLane="best" type="truck_truck"/>
    <trip id="truck87" depart="3449.06" from="870991328" to="427550891#0" departLane="best" type="truck_truck" departSpeed="max"/>
    <trip id="truck88" depart="3488.71" from="1072529522#0" to="580815652" departLane="best" type="truck_truck" departSpeed="max"/>
    <trip id="truck89" depart="3528.35" from="-678188678" to="427551889#0" departLane="best" type="truck_truck" departSpeed="max"/>
    <trip id="truck90" depart="3568.00" from="183685561" to="1072529521" departLane="best" type="truck_truck" departSpeed="max"/>
</routes>
