<?xml version='1.0' encoding='utf-8'?>
<routes xmlns:xsi="http://www.w3.org/2001/XMLSchema-instance" xsi:noNamespaceSchemaLocation="http://sumo.dlr.de/xsd/routes_file.xsd"><vType id="motorcycle_motorcycle" vClass="motorcycle" guiShape="motorcycle" color="255,0,0" maxSpeed="50.0" length="2.5" />
    <trip id="motorcycle_744825_0" depart="0.00" from="651079990" to="683268248#0" departLane="best" type="motorcycle_motorcycle" departSpeed="max" /><trip id="motorcycle_744825_1" depart="503.62" from="580815653#0" to="366952449#0" departLane="best" type="motorcycle_motorcycle" departSpeed="max" /><trip id="motorcycle_744825_2" depart="3021.73" from="561748193" to="427550891#0" departLane="best" type="motorcycle_motorcycle" /><trip id="motorcycle_744825_3" depart="1259.05" from="158466192#0" to="683268248#0" departLane="best" type="motorcycle_motorcycle" /><trip id="motorcycle_744825_4" depart="3273.54" from="775185671" to="683268239" departLane="best" type="motorcycle_motorcycle" departSpeed="max" /><trip id="motorcycle_744825_5" depart="377.72" from="573710409#0" to="683268248#0" departLane="best" type="motorcycle_motorcycle" /><trip id="motorcycle_744825_6" depart="1133.15" from="852188473" to="624604434" departLane="best" type="motorcycle_motorcycle" /><trip id="motorcycle_744825_7" depart="755.43" from="624604435#0" to="624604434" departLane="best" type="motorcycle_motorcycle" /><trip id="motorcycle_744825_8" depart="1007.24" from="573710409#0" to="1054125801" departLane="best" type="motorcycle_motorcycle" /><trip id="motorcycle_744825_9" depart="2895.82" from="642898747" to="366952449#0" departLane="best" type="motorcycle_motorcycle" /><trip id="motorcycle_744825_10" depart="629.53" from="573710409#0" to="158466192#0" departLane="best" type="motorcycle_motorcycle" /><trip id="motorcycle_744825_11" depart="2014.48" from="158466192#0" to="624604434" departLane="best" type="motorcycle_motorcycle" /><trip id="motorcycle_744825_12" depart="125.91" from="580815653#0" to="624604434" departLane="best" type="motorcycle_motorcycle" departSpeed="max" /><trip id="motorcycle_744825_13" depart="251.81" from="-678188678" to="561748193" departLane="best" type="motorcycle_motorcycle" departSpeed="max" /><trip id="motorcycle_744825_14" depart="2644.01" from="580815653#0" to="1054125801" departLane="best" type="motorcycle_motorcycle" departSpeed="max" /><trip id="motorcycle_744825_15" depart="1384.96" from="651079990" to="158466192#0" departLane="best" type="motorcycle_motorcycle" departSpeed="max" /><trip id="motorcycle_744825_16" depart="2518.11" from="158466192#0" to="624604434" departLane="best" type="motorcycle_motorcycle" /><trip id="motorcycle_744825_17" depart="1762.67" from="642898747" to="561748189" departLane="best" type="motorcycle_motorcycle" /><trip id="motorcycle_744825_18" depart="1888.58" from="870991319#0" to="624604434" departLane="best" type="motorcycle_motorcycle" departSpeed="max" /><trip id="motorcycle_744825_19" depart="3399.44" from="870991319#0" to="366952449#0" departLane="best" type="motorcycle_motorcycle" departSpeed="max" /><trip id="motorcycle_744825_20" depart="1510.86" from="651079990" to="683268248#0" departLane="best" type="motorcycle_motorcycle" departSpeed="max" /><trip id="motorcycle_744825_21" depart="1636.77" from="852188473" to="427550891#0" departLane="best" type="motorcycle_motorcycle" /><trip id="motorcycle_744825_22" depart="3525.35" from="366949696" to="366952449#0" departLane="best" type="motorcycle_motorcycle" departSpeed="max" /><trip id="motorcycle_744825_enh_23" depart="0.00" from="427551860" to="1054125801" type="motorcycle_motorcycle" color="255,0,0" departLane="best" departSpeed="max" departPos="random" speedFactor="1.01" /><trip id="motorcycle_744825_enh_24" depart="0.00" from="642898747" to="852188473" type="motorcycle_motorcycle" color="128,0,128" departLane="best" departSpeed="max" departPos="random" speedFactor="1.09" /><trip id="motorcycle_744825_enh_25" depart="0.00" from="561748189" to="366952449#0" type="motorcycle_motorcycle" color="0,0,0" departLane="best" departSpeed="max" departPos="random" speedFactor="0.87" /><trip id="motorcycle_744825_enh_26" depart="1.20" from="561748189" to="624604434" type="motorcycle_motorcycle" color="255,165,0" departLane="best" departSpeed="max" departPos="random" speedFactor="0.97" /><trip id="motorcycle_744825_enh_27" depart="180.47" from="870991319#0" to="561748189" type="motorcycle_motorcycle" color="255,255,255" departLane="best" departSpeed="max" departPos="random" speedFactor="0.9" /><trip id="motorcycle_744825_enh_28" depart="234.39" from="852188473" to="683268248#0" type="motorcycle_motorcycle" color="255,255,0" departLane="best" departSpeed="max" departPos="random" speedFactor="0.86" /><trip id="motorcycle_744825_enh_29" depart="254.87" from="-678188678" to="158466192#0" type="motorcycle_motorcycle" color="128,0,128" departLane="best" departSpeed="max" departPos="random" speedFactor="1.01" /><trip id="motorcycle_744825_enh_30" depart="340.92" from="624604436" to="427550891#0" type="motorcycle_motorcycle" color="0,0,0" departLane="best" departSpeed="max" departPos="random" speedFactor="0.99" /><trip id="motorcycle_744825_enh_31" depart="448.49" from="427551860" to="561748193" type="motorcycle_motorcycle" color="128,0,128" departLane="best" departSpeed="max" departPos="random" speedFactor="0.96" /><trip id="motorcycle_744825_enh_32" depart="451.07" from="-678188678" to="624604436" type="motorcycle_motorcycle" color="0,0,255" departLane="best" departSpeed="max" departPos="random" speedFactor="1.05" /><trip id="motorcycle_744825_enh_33" depart="505.80" from="561748193" to="183689805#0" type="motorcycle_motorcycle" color="255,255,0" departLane="best" departSpeed="max" departPos="random" speedFactor="0.89" /><trip id="motorcycle_744825_enh_34" depart="510.08" from="561748193" to="427550891#0" type="motorcycle_motorcycle" color="0,0,255" departLane="best" departSpeed="max" departPos="random" speedFactor="0.9" /><trip id="motorcycle_744825_enh_35" depart="700.91" from="580815653#0" to="366952449#0" type="motorcycle_motorcycle" color="255,165,0" departLane="best" departSpeed="max" departPos="random" speedFactor="0.95" /><trip id="motorcycle_744825_enh_36" depart="702.64" from="852188473" to="1054125801" type="motorcycle_motorcycle" color="0,0,0" departLane="best" departSpeed="max" departPos="random" speedFactor="1.11" /><trip id="motorcycle_744825_enh_37" depart="769.79" from="-678188678" to="852188473" type="motorcycle_motorcycle" color="255,255,0" departLane="best" departSpeed="max" departPos="random" speedFactor="0.9" /><trip id="motorcycle_744825_enh_38" depart="872.32" from="580815653#0" to="158466192#0" type="motorcycle_motorcycle" color="255,0,0" departLane="best" departSpeed="max" departPos="random" speedFactor="1.11" /><trip id="motorcycle_744825_enh_39" depart="872.91" from="573710409#0" to="561748193" type="motorcycle_motorcycle" color="255,0,0" departLane="best" departSpeed="max" departPos="random" speedFactor="0.96" /><trip id="motorcycle_744825_enh_40" depart="926.34" from="580815653#0" to="573710409#0" type="motorcycle_motorcycle" color="0,0,0" departLane="best" departSpeed="max" departPos="random" speedFactor="0.91" /><trip id="motorcycle_744825_enh_41" depart="1037.23" from="642898747" to="183689805#0" type="motorcycle_motorcycle" color="0,0,255" departLane="best" departSpeed="max" departPos="random" speedFactor="0.88" /><trip id="motorcycle_744825_enh_42" depart="1038.04" from="624604436" to="683268248#0" type="motorcycle_motorcycle" color="255,0,0" departLane="best" departSpeed="max" departPos="random" speedFactor="0.98" /><trip id="motorcycle_744825_enh_43" depart="1165.90" from="642898747" to="624604434" type="motorcycle_motorcycle" color="0,0,0" departLane="best" departSpeed="max" departPos="random" speedFactor="0.99" /><trip id="motorcycle_744825_enh_44" depart="1198.71" from="561748193" to="1054125801" type="motorcycle_motorcycle" color="255,0,0" departLane="best" departSpeed="max" departPos="random" speedFactor="0.9" /><trip id="motorcycle_744825_enh_45" depart="1291.20" from="-678188678" to="683268248#0" type="motorcycle_motorcycle" color="0,0,0" departLane="best" departSpeed="max" departPos="random" speedFactor="1.08" /><trip id="motorcycle_744825_enh_46" depart="1327.41" from="561748189" to="683268248#0" type="motorcycle_motorcycle" color="255,165,0" departLane="best" departSpeed="max" departPos="random" speedFactor="0.88" /><trip id="motorcycle_744825_enh_47" depart="1360.48" from="651079990" to="683268248#0" type="motorcycle_motorcycle" color="255,255,255" departLane="best" departSpeed="max" departPos="random" speedFactor="1.05" /><trip id="motorcycle_744825_enh_48" depart="1404.70" from="642898747" to="624604436" type="motorcycle_motorcycle" color="128,0,128" departLane="best" departSpeed="max" departPos="random" speedFactor="1.09" /><trip id="motorcycle_744825_enh_49" depart="1556.41" from="-678188678" to="561748193" type="motorcycle_motorcycle" color="0,0,0" departLane="best" departSpeed="max" departPos="random" speedFactor="0.95" /><trip id="motorcycle_744825_enh_50" depart="1557.59" from="561748193" to="158466192#0" type="motorcycle_motorcycle" color="0,0,0" departLane="best" departSpeed="max" departPos="random" speedFactor="1.12" /><trip id="motorcycle_744825_enh_51" depart="1620.29" from="852188473" to="624604434" type="motorcycle_motorcycle" color="0,128,0" departLane="best" departSpeed="max" departPos="random" speedFactor="0.9" /><trip id="motorcycle_744825_enh_52" depart="1729.59" from="767517245" to="775185678" type="motorcycle_motorcycle" color="255,0,0" departLane="best" departSpeed="max" departPos="random" speedFactor="1.07" /><trip id="motorcycle_744825_enh_53" depart="1771.96" from="651079990" to="427550891#0" type="motorcycle_motorcycle" color="0,128,0" departLane="best" departSpeed="max" departPos="random" speedFactor="1.08" /><trip id="motorcycle_744825_enh_54" depart="1814.32" from="366949696" to="561748189" type="motorcycle_motorcycle" color="255,165,0" departLane="best" departSpeed="max" departPos="random" speedFactor="0.86" /><trip id="motorcycle_744825_enh_55" depart="1866.88" from="561748189" to="573710409#0" type="motorcycle_motorcycle" color="0,0,0" departLane="best" departSpeed="max" departPos="random" speedFactor="1.05" /><trip id="motorcycle_744825_enh_56" depart="1897.52" from="870991319#0" to="427550891#0" type="motorcycle_motorcycle" color="0,0,255" departLane="best" departSpeed="max" departPos="random" speedFactor="0.97" /><trip id="motorcycle_744825_enh_57" depart="2069.39" from="158466192#0" to="1054125801" type="motorcycle_motorcycle" color="128,0,128" departLane="best" departSpeed="max" departPos="random" speedFactor="0.97" /><trip id="motorcycle_744825_enh_58" depart="2077.21" from="651079990" to="683268248#0" type="motorcycle_motorcycle" color="255,255,255" departLane="best" departSpeed="max" departPos="random" speedFactor="1.11" /><trip id="motorcycle_744825_enh_59" depart="2101.49" from="427551860" to="624604434" type="motorcycle_motorcycle" color="255,0,0" departLane="best" departSpeed="max" departPos="random" speedFactor="0.97" /><trip id="motorcycle_744825_enh_60" depart="2213.71" from="651079990" to="1054125801" type="motorcycle_motorcycle" color="128,0,128" departLane="best" departSpeed="max" departPos="random" speedFactor="0.97" /><trip id="motorcycle_744825_enh_61" depart="2238.20" from="-678188678" to="561748189" type="motorcycle_motorcycle" color="255,255,0" departLane="best" departSpeed="max" departPos="random" speedFactor="0.96" /><trip id="motorcycle_744825_enh_62" depart="2340.20" from="366949696" to="1054125801" type="motorcycle_motorcycle" color="255,165,0" departLane="best" departSpeed="max" departPos="random" speedFactor="0.87" /><trip id="motorcycle_744825_enh_63" depart="2349.20" from="-678188678" to="1054125801" type="motorcycle_motorcycle" color="128,0,128" departLane="best" departSpeed="max" departPos="random" speedFactor="0.88" /><trip id="motorcycle_744825_enh_64" depart="2418.30" from="624604436" to="561748193" type="motorcycle_motorcycle" color="0,128,0" departLane="best" departSpeed="max" departPos="random" speedFactor="0.9" /><trip id="motorcycle_744825_enh_65" depart="2555.84" from="642898747" to="683268248#0" type="motorcycle_motorcycle" color="255,0,0" departLane="best" departSpeed="max" departPos="random" speedFactor="0.89" /><trip id="motorcycle_744825_enh_66" depart="2579.63" from="852188473" to="1054125801" type="motorcycle_motorcycle" color="0,0,255" departLane="best" departSpeed="max" departPos="random" speedFactor="0.88" /><trip id="motorcycle_744825_enh_67" depart="2620.74" from="870991319#0" to="427551860" type="motorcycle_motorcycle" color="255,165,0" departLane="best" departSpeed="max" departPos="random" speedFactor="1.0" /><trip id="motorcycle_744825_enh_68" depart="2633.36" from="852188473" to="366952449#0" type="motorcycle_motorcycle" color="255,255,0" departLane="best" departSpeed="max" departPos="random" speedFactor="1.05" /><trip id="motorcycle_744825_enh_69" depart="2751.97" from="580815653#0" to="561748189" type="motorcycle_motorcycle" color="0,0,255" departLane="best" departSpeed="max" departPos="random" speedFactor="1.07" /><trip id="motorcycle_744825_enh_70" depart="2785.43" from="561748189" to="366952449#0" type="motorcycle_motorcycle" color="0,128,0" departLane="best" departSpeed="max" departPos="random" speedFactor="1.15" /><trip id="motorcycle_744825_enh_71" depart="2867.79" from="852188473" to="427550891#0" type="motorcycle_motorcycle" color="255,255,0" departLane="best" departSpeed="max" departPos="random" speedFactor="1.09" /><trip id="motorcycle_744825_enh_72" depart="2936.58" from="366949696" to="1054125801" type="motorcycle_motorcycle" color="0,0,0" departLane="best" departSpeed="max" departPos="random" speedFactor="0.87" /><trip id="motorcycle_744825_enh_73" depart="3023.24" from="624604435#0" to="561748193" type="motorcycle_motorcycle" color="128,0,128" departLane="best" departSpeed="max" departPos="random" speedFactor="0.91" /><trip id="motorcycle_744825_enh_74" depart="3070.62" from="580815653#0" to="1054125801" type="motorcycle_motorcycle" color="128,0,128" departLane="best" departSpeed="max" departPos="random" speedFactor="1.05" /><trip id="motorcycle_744825_enh_75" depart="3093.08" from="561748189" to="683268248#0" type="motorcycle_motorcycle" color="128,0,128" departLane="best" departSpeed="max" departPos="random" speedFactor="0.98" /><trip id="motorcycle_744825_enh_76" depart="3121.27" from="870991319#0" to="366952449#0" type="motorcycle_motorcycle" color="255,255,0" departLane="best" departSpeed="max" departPos="random" speedFactor="0.96" /><trip id="motorcycle_744825_enh_77" depart="3258.33" from="580815653#0" to="561748193" type="motorcycle_motorcycle" color="0,128,0" departLane="best" departSpeed="max" departPos="random" speedFactor="1.01" /><trip id="motorcycle_744825_enh_78" depart="3277.35" from="775185671" to="683268239" type="motorcycle_motorcycle" color="0,0,0" departLane="best" departSpeed="max" departPos="random" speedFactor="0.94" /><trip id="motorcycle_744825_enh_79" depart="3407.01" from="-678188678" to="624604434" type="motorcycle_motorcycle" color="255,0,0" departLane="best" departSpeed="max" departPos="random" speedFactor="0.86" /><trip id="motorcycle_744825_enh_80" depart="3451.01" from="580815653#0" to="573710409#0" type="motorcycle_motorcycle" color="255,165,0" departLane="best" departSpeed="max" departPos="random" speedFactor="0.99" /><trip id="motorcycle_744825_enh_81" depart="3505.66" from="651079990" to="624604434" type="motorcycle_motorcycle" color="0,0,255" departLane="best" departSpeed="max" departPos="random" speedFactor="1.0" /><trip id="motorcycle_744825_enh_82" depart="3506.61" from="651079990" to="1054125801" type="motorcycle_motorcycle" color="255,165,0" departLane="best" departSpeed="max" departPos="random" speedFactor="1.07" /></routes>