<?xml version="1.0" encoding="UTF-8"?>

<!-- generated on 2025-09-03 00:55:17.274329 by osmWebWizard.py v1_24_0+0000-b72eb3fabc8
<configuration>
    <net-file value="C:\Users\kgaqu\OneDrive\Documents\4th Year\Capstone 2\v10\osm_importer\osm_scenarios\2025-09-03-00-55-13\osm.net.xml.gz"/>
    <output-trip-file value="C:\Users\kgaqu\OneDrive\Documents\4th Year\Capstone 2\v10\osm_importer\osm_scenarios\2025-09-03-00-55-13\osm.bus.trips.xml"/>
    <route-file value="C:\Users\kgaqu\OneDrive\Documents\4th Year\Capstone 2\v10\osm_importer\osm_scenarios\2025-09-03-00-55-13\osm.bus.rou.xml"/>
    <prefix value="bus"/>
    <trip-attributes value="departLane=&quot;best&quot;"/>
    <fringe-start-attributes value="departSpeed=&quot;max&quot;"/>
    <vehicle-class value="bus"/>
    <fringe-factor value="5"/>
    <edge-permission value="bus"/>
    <via-edge-types value="highway.motorway,highway.motorway_link,highway.trunk_link,highway.primary_link,highway.secondary_link,highway.tertiary_link"/>
    <seed value="43"/>
    <min-distance value="600.0"/>
    <min-distance.fringe value="10.0"/>
    <remove-loops value="True"/>
    <insertion-density value="4.0"/>
</configuration>
-->

<routes xmlns:xsi="http://www.w3.org/2001/XMLSchema-instance" xsi:noNamespaceSchemaLocation="http://sumo.dlr.de/xsd/routes_file.xsd">
    <vType id="bus_bus" vClass="bus"/>
    <trip id="bus0" depart="0.00" from="183685561" to="183689805#0" departLane="best" type="bus_bus" departSpeed="max"/>
    <trip id="bus1" depart="79.29" from="870991328" to="580815652" departLane="best" type="bus_bus" departSpeed="max"/>
    <trip id="bus2" depart="158.58" from="366960815" to="993441704" departLane="best" type="bus_bus" departSpeed="max"/>
    <trip id="bus3" depart="237.87" from="1033158925" to="580815652" departLane="best" type="bus_bus"/>
    <trip id="bus4" depart="317.16" from="1180214148" to="683268239" departLane="best" type="bus_bus" departSpeed="max"/>
    <trip id="bus5" depart="396.44" from="183685561" to="651080031" departLane="best" type="bus_bus" departSpeed="max"/>
    <trip id="bus6" depart="475.73" from="1072529522#0" to="580815652" departLane="best" type="bus_bus" departSpeed="max"/>
    <trip id="bus7" depart="555.02" from="870991328" to="993441704" departLane="best" type="bus_bus" departSpeed="max"/>
    <trip id="bus8" depart="634.31" from="183685561" to="1033158919#0" departLane="best" type="bus_bus" departSpeed="max"/>
    <trip id="bus9" depart="713.60" from="870991328" to="427550891#0" departLane="best" type="bus_bus" departSpeed="max"/>
    <trip id="bus10" depart="792.89" from="1072529522#0" to="580815652" departLane="best" type="bus_bus" departSpeed="max"/>
    <trip id="bus11" depart="872.18" from="183685561" to="427550891#0" departLane="best" type="bus_bus" departSpeed="max"/>
    <trip id="bus12" depart="951.47" from="1180214148" to="683268239" departLane="best" type="bus_bus" departSpeed="max"/>
    <trip id="bus13" depart="1030.75" from="1072529522#0" to="580815652" departLane="best" type="bus_bus" departSpeed="max"/>
    <trip id="bus14" depart="1110.04" from="870991328" to="427550891#0" departLane="best" type="bus_bus" departSpeed="max"/>
    <trip id="bus15" depart="1189.33" from="183685561" to="651080031" departLane="best" type="bus_bus" departSpeed="max"/>
    <trip id="bus16" depart="1268.62" from="183685561" to="1054125801" departLane="best" type="bus_bus" departSpeed="max"/>
    <trip id="bus17" depart="1347.91" from="870991328" to="993441704" departLane="best" type="bus_bus" departSpeed="max"/>
    <trip id="bus18" depart="1427.20" from="624604434" to="683268248#0" departLane="best" type="bus_bus"/>
    <trip id="bus19" depart="1506.49" from="183685561" to="651080031" departLane="best" type="bus_bus" departSpeed="max"/>
    <trip id="bus20" depart="1585.78" from="183685561" to="624604436" departLane="best" type="bus_bus" departSpeed="max"/>
    <trip id="bus21" depart="1665.06" from="852188473" to="580815652" departLane="best" type="bus_bus"/>
    <trip id="bus22" depart="1744.35" from="183685561" to="1072529521" departLane="best" type="bus_bus" departSpeed="max"/>
    <trip id="bus23" depart="1823.64" from="580815653#0" to="624604434" departLane="best" type="bus_bus"/>
    <trip id="bus24" depart="1902.93" from="993441703" to="427551889#0" departLane="best" type="bus_bus" departSpeed="max"/>
    <trip id="bus25" depart="1982.22" from="1072529522#0" to="993441704" departLane="best" type="bus_bus" departSpeed="max"/>
    <trip id="bus26" depart="2061.51" from="183685561" to="183689805#0" departLane="best" type="bus_bus" departSpeed="max"/>
    <trip id="bus27" depart="2140.80" from="1072529522#0" to="683268248#0" departLane="best" type="bus_bus" departSpeed="max"/>
    <trip id="bus28" depart="2220.09" from="561748189" to="580815652" departLane="best" type="bus_bus"/>
    <trip id="bus29" depart="2299.38" from="183685561" to="624604434" departLane="best" type="bus_bus" departSpeed="max"/>
    <trip id="bus30" depart="2378.66" from="993441703" to="427551889#0" departLane="best" type="bus_bus" departSpeed="max"/>
    <trip id="bus31" depart="2457.95" from="183685561" to="427551889#0" departLane="best" type="bus_bus" departSpeed="max"/>
    <trip id="bus32" depart="2537.24" from="1033158919#0" to="993441704" departLane="best" type="bus_bus"/>
    <trip id="bus33" depart="2616.53" from="183685561" to="651080031" departLane="best" type="bus_bus" departSpeed="max"/>
    <trip id="bus34" depart="2695.82" from="993441703" to="427551889#0" departLane="best" type="bus_bus" departSpeed="max"/>
    <trip id="bus35" depart="2775.11" from="1180214148" to="683268239" departLane="best" type="bus_bus" departSpeed="max"/>
    <trip id="bus36" depart="2854.40" from="1033158925" to="580815652" departLane="best" type="bus_bus"/>
    <trip id="bus37" depart="2933.69" from="-678188678" to="580815652" departLane="best" type="bus_bus" departSpeed="max"/>
    <trip id="bus38" depart="3012.97" from="183685561" to="427551889#0" departLane="best" type="bus_bus" departSpeed="max"/>
    <trip id="bus39" depart="3092.26" from="183685561" to="427551889#0" departLane="best" type="bus_bus" departSpeed="max"/>
    <trip id="bus40" depart="3171.55" from="183685561" to="624604434" departLane="best" type="bus_bus" departSpeed="max"/>
    <trip id="bus41" depart="3250.84" from="642896763" to="775185678" departLane="best" type="bus_bus" departSpeed="max"/>
    <trip id="bus42" depart="3330.13" from="580815653#0" to="624604434" departLane="best" type="bus_bus"/>
    <trip id="bus43" depart="3409.42" from="870991328" to="993441704" departLane="best" type="bus_bus" departSpeed="max"/>
    <trip id="bus44" depart="3488.71" from="366960815" to="580815652" departLane="best" type="bus_bus" departSpeed="max"/>
    <trip id="bus45" depart="3568.00" from="183685561" to="624604436" departLane="best" type="bus_bus" departSpeed="max"/>
</routes>
