<?xml version="1.0" encoding="UTF-8"?>

<!-- generated on 2025-09-03 01:04:12 by Eclipse SUMO duarouter Version 1.24.0
<duarouterConfiguration xmlns:xsi="http://www.w3.org/2001/XMLSchema-instance" xsi:noNamespaceSchemaLocation="http://sumo.dlr.de/xsd/duarouterConfiguration.xsd">

    <input>
        <net-file value="C:\Users\kgaqu\OneDrive\Documents\4th Year\Capstone 2\v10\backend\networks\sm_molino_area\sm_molino_area.net.xml"/>
        <route-files value="C:\Users\kgaqu\OneDrive\Documents\4th Year\Capstone 2\v10\backend\networks\sm_molino_area\routes\osm.passenger.trips.xml"/>
    </input>

    <output>
        <output-file value="C:\Users\kgaqu\OneDrive\Documents\4th Year\Capstone 2\v10\backend\networks\sm_molino_area\routes\osm.passenger.rou.xml"/>
    </output>

    <report>
        <ignore-errors value="true"/>
    </report>

</duarouterConfiguration>
-->

<routes xmlns:xsi="http://www.w3.org/2001/XMLSchema-instance" xsi:noNamespaceSchemaLocation="http://sumo.dlr.de/xsd/routes_file.xsd">
    <vType id="veh_passenger" vClass="passenger"/>
    <vehicle id="veh0" type="veh_passenger" depart="0.00" departLane="best" departSpeed="max">
        <route edges="183685561 580815653#0 158466192#0 624604436 852188473 561748193 624604434 1072529521"/>
    </vehicle>
    <vehicle id="veh1" type="veh_passenger" depart="26.43" departLane="best">
        <route edges="1033158919#0 366949696 561748189 573710409#0 158466192#0 624604436"/>
    </vehicle>
    <vehicle id="veh2" type="veh_passenger" depart="52.86" departLane="best">
        <route edges="852188473 561748193 561748189 573710409#0 183689805#0 1054125801 651080031"/>
    </vehicle>
    <vehicle id="veh3" type="veh_passenger" depart="79.29" departLane="best">
        <route edges="1033158923#0 1033158919#0 366949696 561748189"/>
    </vehicle>
    <vehicle id="veh4" type="veh_passenger" depart="105.72" departLane="best">
        <route edges="624604434 1033158919#0 366949696 561748189 573710409#0 366952449#0 993441704"/>
    </vehicle>
    <vehicle id="veh5" type="veh_passenger" depart="132.15" departLane="best" departSpeed="max">
        <route edges="1072529522#0 1033158919#0 366949696 561748189 573710409#0 366952449#0"/>
    </vehicle>
    <vehicle id="veh6" type="veh_passenger" depart="158.58" departLane="best" departSpeed="max">
        <route edges="870991328 624604435#0 366952449#0 993441704"/>
    </vehicle>
    <vehicle id="veh7" type="veh_passenger" depart="185.01" departLane="best" departSpeed="max">
        <route edges="183685561 580815653#0 158466192#0 624604436"/>
    </vehicle>
    <vehicle id="veh8" type="veh_passenger" depart="211.44" departLane="best" departSpeed="max">
        <route edges="-678188678 561748189 573710409#0 683268248#0 580815652"/>
    </vehicle>
    <vehicle id="veh9" type="veh_passenger" depart="237.87" departLane="best">
        <route edges="561748193 427550891#0"/>
    </vehicle>
    <vehicle id="veh10" type="veh_passenger" depart="264.30" departLane="best">
        <route edges="1033158925 366949696 561748189"/>
    </vehicle>
    <vehicle id="veh11" type="veh_passenger" depart="290.73" departLane="best" departSpeed="max">
        <route edges="870991328 624604435#0"/>
    </vehicle>
    <vehicle id="veh12" type="veh_passenger" depart="317.16" departLane="best" departSpeed="max">
        <route edges="183685561 580815653#0 158466192#0 624604436 852188473 561748193 427550891#0"/>
    </vehicle>
    <vehicle id="veh13" type="veh_passenger" depart="343.58" departLane="best" departSpeed="max">
        <route edges="1072529522#0 1033158919#0 366949696 561748189 573710409#0 158466192#0 624604436"/>
    </vehicle>
    <vehicle id="veh14" type="veh_passenger" depart="370.01" departLane="best">
        <route edges="1033158919#0 366949696 561748189 573710409#0 366952449#0 993441704"/>
    </vehicle>
    <vehicle id="veh15" type="veh_passenger" depart="396.44" departLane="best" departSpeed="max">
        <route edges="183685561 580815653#0 158466192#0 624604436 852188473 561748193"/>
    </vehicle>
    <vehicle id="veh16" type="veh_passenger" depart="422.87" departLane="best" departSpeed="max">
        <route edges="183685561 580815653#0 366952449#0 993441704"/>
    </vehicle>
    <vehicle id="veh17" type="veh_passenger" depart="449.30" departLane="best">
        <route edges="573710409#0 683268248#0 580815652"/>
    </vehicle>
    <vehicle id="veh18" type="veh_passenger" depart="475.73" departLane="best" departSpeed="max">
        <route edges="870991328 624604435#0 183689805#0"/>
    </vehicle>
    <vehicle id="veh19" type="veh_passenger" depart="502.16" departLane="best" departSpeed="max">
        <route edges="366960815 1033158923#0 1033158919#0 366949696 561748189 573710409#0 183689805#0 1054125801 651080031"/>
    </vehicle>
    <vehicle id="veh20" type="veh_passenger" depart="528.59" departLane="best" departSpeed="max">
        <route edges="870991328 624604435#0 158466192#0 624604436"/>
    </vehicle>
    <vehicle id="veh21" type="veh_passenger" depart="555.02" departLane="best" departSpeed="max">
        <route edges="870991328 624604435#0 158466192#0 624604436 852188473 561748193 624604434 1033158919#0 366949696"/>
    </vehicle>
    <vehicle id="veh22" type="veh_passenger" depart="581.45" departLane="best">
        <route edges="561748193 624604434 427551889#0"/>
    </vehicle>
    <vehicle id="veh23" type="veh_passenger" depart="607.88" departLane="best">
        <route edges="852188473 561748193 624604434 427551889#0"/>
    </vehicle>
    <vehicle id="veh24" type="veh_passenger" depart="634.31" departLane="best" departSpeed="max">
        <route edges="366960815 1033158923#0 1033158919#0 366949696 561748189"/>
    </vehicle>
    <vehicle id="veh25" type="veh_passenger" depart="660.74" departLane="best">
        <route edges="580815653#0 158466192#0 624604436"/>
    </vehicle>
    <vehicle id="veh26" type="veh_passenger" depart="687.17" departLane="best">
        <route edges="580815653#0 158466192#0 624604436 852188473 561748193 427550891#0"/>
    </vehicle>
    <vehicle id="veh27" type="veh_passenger" depart="713.60" departLane="best">
        <route edges="561748189 573710409#0 366952449#0 993441704"/>
    </vehicle>
    <vehicle id="veh28" type="veh_passenger" depart="740.03" departLane="best" departSpeed="max">
        <route edges="366960815 1033158923#0 1033158919#0 366949696 561748189 573710409#0 158466192#0 624604436"/>
    </vehicle>
    <vehicle id="veh29" type="veh_passenger" depart="766.46" departLane="best" departSpeed="max">
        <route edges="366960815 1033158923#0 1033158919#0 366949696 561748189 573710409#0 366952449#0"/>
    </vehicle>
    <vehicle id="veh30" type="veh_passenger" depart="792.89" departLane="best" departSpeed="max">
        <route edges="870991328 624604435#0 683268248#0"/>
    </vehicle>
    <vehicle id="veh31" type="veh_passenger" depart="819.32" departLane="best" departSpeed="max">
        <route edges="870991328 624604435#0 158466192#0 624604436 852188473 561748193 624604434 1072529521"/>
    </vehicle>
    <vehicle id="veh32" type="veh_passenger" depart="845.75" departLane="best">
        <route edges="580815653#0 158466192#0 624604436 852188473 561748193 561748189 573710409#0"/>
    </vehicle>
    <vehicle id="veh33" type="veh_passenger" depart="872.18" departLane="best" departSpeed="max">
        <route edges="642896763 775185678"/>
    </vehicle>
    <vehicle id="veh34" type="veh_passenger" depart="898.61" departLane="best" departSpeed="max">
        <route edges="870991328 624604435#0 683268248#0 580815652"/>
    </vehicle>
    <vehicle id="veh35" type="veh_passenger" depart="925.04" departLane="best" departSpeed="max">
        <route edges="993441703 642898747 158466192#0 624604436 852188473 561748193 624604434 1072529521"/>
    </vehicle>
    <vehicle id="veh36" type="veh_passenger" depart="951.47" departLane="best" departSpeed="max">
        <route edges="366960815 1033158923#0 1033158919#0 366949696 561748189 573710409#0 158466192#0 624604436"/>
    </vehicle>
    <vehicle id="veh37" type="veh_passenger" depart="977.90" departLane="best" departSpeed="max">
        <route edges="366960815 1033158923#0 1033158919#0 366949696 561748189 573710409#0 183689805#0 1054125801 651080031"/>
    </vehicle>
    <vehicle id="veh38" type="veh_passenger" depart="1004.32" departLane="best" departSpeed="max">
        <route edges="183685561 580815653#0 158466192#0 624604436 852188473 561748193 624604434 427551889#0"/>
    </vehicle>
    <vehicle id="veh39" type="veh_passenger" depart="1030.75" departLane="best" departSpeed="max">
        <route edges="183685561 580815653#0 158466192#0 624604436 852188473 561748193 427550891#0"/>
    </vehicle>
    <vehicle id="veh40" type="veh_passenger" depart="1057.18" departLane="best" departSpeed="max">
        <route edges="993441703 642898747 158466192#0 624604436 852188473"/>
    </vehicle>
    <vehicle id="veh41" type="veh_passenger" depart="1083.61" departLane="best" departSpeed="max">
        <route edges="870991328 624604435#0 683268248#0"/>
    </vehicle>
    <vehicle id="veh42" type="veh_passenger" depart="1110.04" departLane="best" departSpeed="max">
        <route edges="183685561 580815653#0 158466192#0 624604436"/>
    </vehicle>
    <vehicle id="veh43" type="veh_passenger" depart="1136.47" departLane="best" departSpeed="max">
        <route edges="183685561 580815653#0 158466192#0 624604436 852188473 561748193 624604434 1072529521"/>
    </vehicle>
    <vehicle id="veh44" type="veh_passenger" depart="1162.90" departLane="best" departSpeed="max">
        <route edges="993441703 642898747 158466192#0 624604436 852188473 561748193"/>
    </vehicle>
    <vehicle id="veh45" type="veh_passenger" depart="1189.33" departLane="best">
        <route edges="852188473 561748193 561748189 573710409#0 183689805#0 1054125801 651080031"/>
    </vehicle>
    <vehicle id="veh46" type="veh_passenger" depart="1215.76" departLane="best" departSpeed="max">
        <route edges="993441703 642898747 158466192#0 624604436 852188473 561748193 624604434 1072529521"/>
    </vehicle>
    <vehicle id="veh47" type="veh_passenger" depart="1242.19" departLane="best" departSpeed="max">
        <route edges="-678188678 561748189 573710409#0 683268248#0 580815652"/>
    </vehicle>
    <vehicle id="veh48" type="veh_passenger" depart="1268.62" departLane="best" departSpeed="max">
        <route edges="993441703 642898747 683268248#0 580815652"/>
    </vehicle>
    <vehicle id="veh49" type="veh_passenger" depart="1295.05" departLane="best">
        <route edges="561748193 624604434 427551889#0"/>
    </vehicle>
    <vehicle id="veh50" type="veh_passenger" depart="1321.48" departLane="best" departSpeed="max">
        <route edges="366960815 1033158923#0 1033158919#0 366949696 561748189 573710409#0 683268248#0 580815652"/>
    </vehicle>
    <vehicle id="veh51" type="veh_passenger" depart="1347.91" departLane="best" departSpeed="max">
        <route edges="1072529522#0 1033158919#0 366949696 561748189 573710409#0"/>
    </vehicle>
    <vehicle id="veh52" type="veh_passenger" depart="1374.34" departLane="best">
        <route edges="852188473 561748193 624604434 427551889#0"/>
    </vehicle>
    <vehicle id="veh53" type="veh_passenger" depart="1400.77" departLane="best">
        <route edges="366949696 561748189 573710409#0 158466192#0"/>
    </vehicle>
    <vehicle id="veh54" type="veh_passenger" depart="1427.20" departLane="best" departSpeed="max">
        <route edges="183685561 580815653#0 183689805#0"/>
    </vehicle>
    <vehicle id="veh55" type="veh_passenger" depart="1453.63" departLane="best" departSpeed="max">
        <route edges="870991328 624604435#0 158466192#0 624604436 852188473 561748193 624604434 1072529521"/>
    </vehicle>
    <vehicle id="veh56" type="veh_passenger" depart="1480.06" departLane="best" departSpeed="max">
        <route edges="993441703 642898747 183689805#0 1054125801 651080031"/>
    </vehicle>
    <vehicle id="veh57" type="veh_passenger" depart="1506.49" departLane="best" departSpeed="max">
        <route edges="183685561 580815653#0 183689805#0 1054125801 651080031"/>
    </vehicle>
    <vehicle id="veh58" type="veh_passenger" depart="1532.92" departLane="best">
        <route edges="561748193 624604434 427551889#0"/>
    </vehicle>
    <vehicle id="veh59" type="veh_passenger" depart="1559.35" departLane="best" departSpeed="max">
        <route edges="183685561 580815653#0 158466192#0 624604436 852188473 561748193 624604434 1072529521"/>
    </vehicle>
    <vehicle id="veh60" type="veh_passenger" depart="1585.78" departLane="best" departSpeed="max">
        <route edges="366960815 1033158923#0 1033158919#0 366949696 561748189 573710409#0 158466192#0"/>
    </vehicle>
    <vehicle id="veh61" type="veh_passenger" depart="1612.21" departLane="best" departSpeed="max">
        <route edges="183685561 580815653#0 183689805#0 1054125801 651080031"/>
    </vehicle>
    <vehicle id="veh62" type="veh_passenger" depart="1638.64" departLane="best" departSpeed="max">
        <route edges="870991328 624604435#0 366952449#0 993441704"/>
    </vehicle>
    <vehicle id="veh63" type="veh_passenger" depart="1665.06" departLane="best">
        <route edges="683268248#0 580815652"/>
    </vehicle>
    <vehicle id="veh64" type="veh_passenger" depart="1691.49" departLane="best">
        <route edges="624604434 1033158919#0 366949696 561748189 573710409#0 683268248#0 580815652"/>
    </vehicle>
    <vehicle id="veh65" type="veh_passenger" depart="1717.92" departLane="best" departSpeed="max">
        <route edges="366960815 1033158923#0 1033158919#0 366949696 561748189 573710409#0 183689805#0 1054125801 651080031"/>
    </vehicle>
    <vehicle id="veh66" type="veh_passenger" depart="1744.35" departLane="best" departSpeed="max">
        <route edges="870991328 624604435#0 683268248#0 580815652"/>
    </vehicle>
    <vehicle id="veh67" type="veh_passenger" depart="1770.78" departLane="best">
        <route edges="852188473 561748193 624604434 1072529521"/>
    </vehicle>
    <vehicle id="veh68" type="veh_passenger" depart="1797.21" departLane="best" departSpeed="max">
        <route edges="1072529522#0 1033158919#0 366949696 561748189 573710409#0 158466192#0 624604436"/>
    </vehicle>
    <vehicle id="veh69" type="veh_passenger" depart="1823.64" departLane="best" departSpeed="max">
        <route edges="366960815 1033158923#0 1033158919#0 366949696 561748189 573710409#0 366952449#0 993441704"/>
    </vehicle>
    <vehicle id="veh70" type="veh_passenger" depart="1850.07" departLane="best" departSpeed="max">
        <route edges="183685561 580815653#0"/>
    </vehicle>
    <vehicle id="veh71" type="veh_passenger" depart="1876.50" departLane="best" departSpeed="max">
        <route edges="366960815 1033158923#0 1033158919#0 366949696 561748189 573710409#0 366952449#0 993441704"/>
    </vehicle>
    <vehicle id="veh72" type="veh_passenger" depart="1902.93" departLane="best" departSpeed="max">
        <route edges="366960815 1033158923#0 1033158919#0 366949696 561748189 573710409#0 683268248#0 580815652"/>
    </vehicle>
    <vehicle id="veh73" type="veh_passenger" depart="1929.36" departLane="best" departSpeed="max">
        <route edges="870991328 624604435#0 158466192#0 624604436 852188473 561748193 624604434 1033158919#0 366949696"/>
    </vehicle>
    <vehicle id="veh74" type="veh_passenger" depart="1955.79" departLane="best">
        <route edges="580815653#0 158466192#0 624604436 852188473 561748193"/>
    </vehicle>
    <vehicle id="veh75" type="veh_passenger" depart="1982.22" departLane="best" departSpeed="max">
        <route edges="366960815 1033158923#0 1033158919#0 366949696 561748189 573710409#0 366952449#0 993441704"/>
    </vehicle>
    <vehicle id="veh76" type="veh_passenger" depart="2008.65" departLane="best" departSpeed="max">
        <route edges="870991328 624604435#0 366952449#0 993441704"/>
    </vehicle>
    <vehicle id="veh77" type="veh_passenger" depart="2035.08" departLane="best" departSpeed="max">
        <route edges="1072529522#0 1033158919#0 366949696 561748189 573710409#0 158466192#0 624604436"/>
    </vehicle>
    <vehicle id="veh78" type="veh_passenger" depart="2061.51" departLane="best" departSpeed="max">
        <route edges="366960815 1033158923#0 1033158919#0 366949696 561748189 573710409#0"/>
    </vehicle>
    <vehicle id="veh79" type="veh_passenger" depart="2087.94" departLane="best" departSpeed="max">
        <route edges="993441703 642898747 183689805#0"/>
    </vehicle>
    <vehicle id="veh80" type="veh_passenger" depart="2114.37" departLane="best">
        <route edges="624604436 852188473 561748193 561748189 573710409#0 183689805#0 1054125801 651080031"/>
    </vehicle>
    <vehicle id="veh81" type="veh_passenger" depart="2140.80" departLane="best" departSpeed="max">
        <route edges="183685561 580815653#0 366952449#0 993441704"/>
    </vehicle>
    <vehicle id="veh82" type="veh_passenger" depart="2167.23" departLane="best" departSpeed="max">
        <route edges="870991328 624604435#0 366952449#0"/>
    </vehicle>
    <vehicle id="veh83" type="veh_passenger" depart="2193.66" departLane="best" departSpeed="max">
        <route edges="183685561 580815653#0 158466192#0 624604436"/>
    </vehicle>
    <vehicle id="veh84" type="veh_passenger" depart="2220.09" departLane="best">
        <route edges="852188473 561748193 561748189 573710409#0 683268248#0 580815652"/>
    </vehicle>
    <vehicle id="veh85" type="veh_passenger" depart="2246.52" departLane="best">
        <route edges="580815653#0 158466192#0 624604436 852188473 561748193 624604434 1033158919#0 366949696"/>
    </vehicle>
    <vehicle id="veh86" type="veh_passenger" depart="2272.95" departLane="best" departSpeed="max">
        <route edges="993441703 642898747 183689805#0 1054125801"/>
    </vehicle>
    <vehicle id="veh87" type="veh_passenger" depart="2299.38" departLane="best">
        <route edges="1033158919#0 366949696 561748189"/>
    </vehicle>
    <vehicle id="veh88" type="veh_passenger" depart="2325.80" departLane="best" departSpeed="max">
        <route edges="366960815 1033158923#0 1033158919#0 366949696 561748189"/>
    </vehicle>
    <vehicle id="veh89" type="veh_passenger" depart="2352.23" departLane="best" departSpeed="max">
        <route edges="1072529522#0 1033158919#0 366949696 561748189 573710409#0 158466192#0"/>
    </vehicle>
    <vehicle id="veh90" type="veh_passenger" depart="2378.66" departLane="best" departSpeed="max">
        <route edges="183685561 580815653#0 158466192#0 624604436 852188473 561748193 624604434 1033158919#0"/>
    </vehicle>
    <vehicle id="veh91" type="veh_passenger" depart="2405.09" departLane="best" departSpeed="max">
        <route edges="366960815 1033158923#0 1033158919#0 366949696 561748189 573710409#0 683268248#0 580815652"/>
    </vehicle>
    <vehicle id="veh92" type="veh_passenger" depart="2431.52" departLane="best" departSpeed="max">
        <route edges="993441703 642898747 683268248#0 580815652"/>
    </vehicle>
    <vehicle id="veh93" type="veh_passenger" depart="2457.95" departLane="best">
        <route edges="852188473 561748193 561748189 573710409#0 366952449#0 993441704"/>
    </vehicle>
    <vehicle id="veh94" type="veh_passenger" depart="2484.38" departLane="best" departSpeed="max">
        <route edges="1072529522#0 1033158919#0 366949696 561748189 573710409#0 366952449#0 993441704"/>
    </vehicle>
    <vehicle id="veh95" type="veh_passenger" depart="2510.81" departLane="best" departSpeed="max">
        <route edges="642896763 775185678"/>
    </vehicle>
    <vehicle id="veh96" type="veh_passenger" depart="2537.24" departLane="best" departSpeed="max">
        <route edges="183685561 580815653#0 158466192#0 624604436 852188473 561748193 624604434 427551889#0"/>
    </vehicle>
    <vehicle id="veh97" type="veh_passenger" depart="2563.67" departLane="best">
        <route edges="580815653#0 158466192#0 624604436 852188473 561748193 624604434 427551889#0"/>
    </vehicle>
    <vehicle id="veh98" type="veh_passenger" depart="2590.10" departLane="best">
        <route edges="366949696 561748189 573710409#0 366952449#0 993441704"/>
    </vehicle>
    <vehicle id="veh99" type="veh_passenger" depart="2616.53" departLane="best">
        <route edges="561748193 561748189 573710409#0 366952449#0 993441704"/>
    </vehicle>
    <vehicle id="veh100" type="veh_passenger" depart="2642.96" departLane="best" departSpeed="max">
        <route edges="183685561 580815653#0 158466192#0 624604436 852188473 561748193 624604434"/>
    </vehicle>
    <vehicle id="veh101" type="veh_passenger" depart="2669.39" departLane="best" departSpeed="max">
        <route edges="183685561 580815653#0 183689805#0 1054125801 651080031"/>
    </vehicle>
    <vehicle id="veh102" type="veh_passenger" depart="2695.82" departLane="best" departSpeed="max">
        <route edges="183685561 580815653#0 158466192#0 624604436 852188473 561748193 624604434 1072529521"/>
    </vehicle>
    <vehicle id="veh103" type="veh_passenger" depart="2722.25" departLane="best" departSpeed="max">
        <route edges="366960815 1033158923#0 1033158919#0 366949696 561748189 573710409#0 183689805#0 1054125801 651080031"/>
    </vehicle>
    <vehicle id="veh104" type="veh_passenger" depart="2748.68" departLane="best">
        <route edges="1033158923#0 1033158919#0 366949696 561748189 573710409#0 158466192#0 624604436"/>
    </vehicle>
    <vehicle id="veh105" type="veh_passenger" depart="2775.11" departLane="best">
        <route edges="852188473 561748193 561748189 573710409#0 683268248#0 580815652"/>
    </vehicle>
    <vehicle id="veh106" type="veh_passenger" depart="2801.54" departLane="best">
        <route edges="624604434 1033158919#0 366949696 561748189 573710409#0 683268248#0 580815652"/>
    </vehicle>
    <vehicle id="veh107" type="veh_passenger" depart="2827.97" departLane="best" departSpeed="max">
        <route edges="870991328 624604435#0 366952449#0 993441704"/>
    </vehicle>
    <vehicle id="veh108" type="veh_passenger" depart="2854.40" departLane="best" departSpeed="max">
        <route edges="870991328 624604435#0 158466192#0 624604436 852188473 561748193 624604434 1072529521"/>
    </vehicle>
    <vehicle id="veh109" type="veh_passenger" depart="2880.83" departLane="best">
        <route edges="366949696 561748189 573710409#0 366952449#0 993441704"/>
    </vehicle>
    <vehicle id="veh110" type="veh_passenger" depart="2907.26" departLane="best" departSpeed="max">
        <route edges="993441703 642898747 158466192#0 624604436 852188473 561748193 624604434 1033158919#0"/>
    </vehicle>
    <vehicle id="veh111" type="veh_passenger" depart="2933.69" departLane="best" departSpeed="max">
        <route edges="1180214148 683268239"/>
    </vehicle>
    <vehicle id="veh112" type="veh_passenger" depart="2960.12" departLane="best" departSpeed="max">
        <route edges="183685561 580815653#0 158466192#0 624604436 852188473 561748193 624604434 1033158919#0 366949696"/>
    </vehicle>
    <vehicle id="veh113" type="veh_passenger" depart="2986.54" departLane="best" departSpeed="max">
        <route edges="183685561 580815653#0 158466192#0 624604436 852188473 561748193 624604434 1072529521"/>
    </vehicle>
    <vehicle id="veh114" type="veh_passenger" depart="3012.97" departLane="best" departSpeed="max">
        <route edges="993441703 642898747 158466192#0 624604436 852188473 561748193 624604434 1072529521"/>
    </vehicle>
    <vehicle id="veh115" type="veh_passenger" depart="3039.40" departLane="best" departSpeed="max">
        <route edges="183685561 580815653#0 366952449#0 993441704"/>
    </vehicle>
    <vehicle id="veh116" type="veh_passenger" depart="3065.83" departLane="best" departSpeed="max">
        <route edges="366960815 1033158923#0 1033158919#0 366949696 561748189 573710409#0 183689805#0 1054125801"/>
    </vehicle>
    <vehicle id="veh117" type="veh_passenger" depart="3092.26" departLane="best">
        <route edges="158466192#0 624604436 852188473 561748193 624604434 1072529521"/>
    </vehicle>
    <vehicle id="veh118" type="veh_passenger" depart="3118.69" departLane="best" departSpeed="max">
        <route edges="183685561 580815653#0 183689805#0"/>
    </vehicle>
    <vehicle id="veh119" type="veh_passenger" depart="3145.12" departLane="best">
        <route edges="1033158919#0 366949696 561748189 573710409#0 183689805#0"/>
    </vehicle>
    <vehicle id="veh120" type="veh_passenger" depart="3171.55" departLane="best" departSpeed="max">
        <route edges="993441703 642898747 158466192#0 624604436 852188473 561748193 624604434 427551889#0"/>
    </vehicle>
    <vehicle id="veh121" type="veh_passenger" depart="3197.98" departLane="best" departSpeed="max">
        <route edges="183685561 580815653#0 158466192#0 624604436 852188473 561748193 561748189"/>
    </vehicle>
    <vehicle id="veh122" type="veh_passenger" depart="3224.41" departLane="best" departSpeed="max">
        <route edges="366960815 1033158923#0 1033158919#0 366949696 561748189"/>
    </vehicle>
    <vehicle id="veh123" type="veh_passenger" depart="3250.84" departLane="best" departSpeed="max">
        <route edges="870991328 624604435#0 158466192#0 624604436 852188473 561748193 624604434 1072529521"/>
    </vehicle>
    <vehicle id="veh124" type="veh_passenger" depart="3277.27" departLane="best" departSpeed="max">
        <route edges="870991328 624604435#0 158466192#0 624604436 852188473 561748193 624604434 1072529521"/>
    </vehicle>
    <vehicle id="veh125" type="veh_passenger" depart="3303.70" departLane="best" departSpeed="max">
        <route edges="870991328 624604435#0 158466192#0 624604436 852188473 561748193 624604434 1033158919#0"/>
    </vehicle>
    <vehicle id="veh126" type="veh_passenger" depart="3330.13" departLane="best" departSpeed="max">
        <route edges="183685561 580815653#0 158466192#0"/>
    </vehicle>
    <vehicle id="veh127" type="veh_passenger" depart="3356.56" departLane="best">
        <route edges="561748193 561748189 573710409#0 366952449#0 993441704"/>
    </vehicle>
    <vehicle id="veh128" type="veh_passenger" depart="3382.99" departLane="best">
        <route edges="158466192#0 624604436 852188473 561748193 624604434 427551889#0"/>
    </vehicle>
    <vehicle id="veh129" type="veh_passenger" depart="3409.42" departLane="best" departSpeed="max">
        <route edges="-678188678 561748189 573710409#0 683268248#0"/>
    </vehicle>
    <vehicle id="veh130" type="veh_passenger" depart="3435.85" departLane="best" departSpeed="max">
        <route edges="993441703 642898747 158466192#0 624604436 852188473 561748193 624604434 1033158919#0 366949696"/>
    </vehicle>
    <vehicle id="veh131" type="veh_passenger" depart="3462.28" departLane="best">
        <route edges="852188473 561748193 561748189 573710409#0 366952449#0 993441704"/>
    </vehicle>
    <vehicle id="veh132" type="veh_passenger" depart="3488.71" departLane="best" departSpeed="max">
        <route edges="183685561 580815653#0 158466192#0"/>
    </vehicle>
    <vehicle id="veh133" type="veh_passenger" depart="3515.14" departLane="best">
        <route edges="366949696 427550891#0"/>
    </vehicle>
    <vehicle id="veh134" type="veh_passenger" depart="3541.57" departLane="best" departSpeed="max">
        <route edges="870991328 624604435#0 158466192#0 624604436 852188473 561748193 624604434 1072529521"/>
    </vehicle>
    <vehicle id="veh135" type="veh_passenger" depart="3568.00" departLane="best" departSpeed="max">
        <route edges="993441703 642898747 158466192#0 624604436 852188473 561748193 624604434 1033158919#0"/>
    </vehicle>
    <vehicle id="veh136" type="veh_passenger" depart="3594.43" departLane="best" departSpeed="max">
        <route edges="366960815 1033158923#0 1033158919#0 366949696 561748189 573710409#0"/>
    </vehicle>
</routes>
