<?xml version='1.0' encoding='utf-8'?>
<routes xmlns:xsi="http://www.w3.org/2001/XMLSchema-instance" xsi:noNamespaceSchemaLocation="http://sumo.dlr.de/xsd/routes_file.xsd"><vType id="bus_bus" vClass="bus" guiShape="bus" color="255,255,0" maxSpeed="27.78" length="12.0" />
    <trip id="bus_738137_0" depart="2644.01" from="366949696" to="683268248#0" departLane="best" type="bus_bus" departSpeed="max" /><trip id="bus_738137_1" depart="3021.73" from="580815653#0" to="624604434" departLane="best" type="bus_bus" departSpeed="max" /><trip id="bus_738137_2" depart="377.72" from="580815653#0" to="624604434" departLane="best" type="bus_bus" departSpeed="max" /><trip id="bus_738137_3" depart="755.43" from="580815653#0" to="427550891#0" departLane="best" type="bus_bus" departSpeed="max" /><trip id="bus_738137_4" depart="503.62" from="580815653#0" to="624604434" departLane="best" type="bus_bus" departSpeed="max" /><trip id="bus_738137_5" depart="125.91" from="870991319#0" to="683268248#0" departLane="best" type="bus_bus" departSpeed="max" /><trip id="bus_738137_6" depart="1384.96" from="580815653#0" to="427550891#0" departLane="best" type="bus_bus" departSpeed="max" /><trip id="bus_738137_7" depart="2140.39" from="580815653#0" to="624604434" departLane="best" type="bus_bus" departSpeed="max" /><trip id="bus_738137_8" depart="3273.54" from="580815653#0" to="427550891#0" departLane="best" type="bus_bus" departSpeed="max" /><trip id="bus_738137_9" depart="3399.44" from="580815653#0" to="624604434" departLane="best" type="bus_bus" departSpeed="max" /><trip id="bus_738137_10" depart="1259.05" from="561748193" to="683268248#0" departLane="best" type="bus_bus" /><trip id="bus_738137_11" depart="251.81" from="-678188678" to="683268248#0" departLane="best" type="bus_bus" departSpeed="max" /><trip id="bus_738137_12" depart="629.53" from="580815653#0" to="427550891#0" departLane="best" type="bus_bus" departSpeed="max" /><trip id="bus_738137_13" depart="1888.58" from="580815653#0" to="427550891#0" departLane="best" type="bus_bus" departSpeed="max" /><trip id="bus_738137_14" depart="1636.77" from="366949696" to="683268248#0" departLane="best" type="bus_bus" departSpeed="max" /><trip id="bus_738137_15" depart="1510.86" from="-678188678" to="683268248#0" departLane="best" type="bus_bus" departSpeed="max" /><trip id="bus_738137_16" depart="2266.30" from="580815653#0" to="624604434" departLane="best" type="bus_bus" departSpeed="max" /><trip id="bus_738137_17" depart="881.34" from="870991319#0" to="683268248#0" departLane="best" type="bus_bus" departSpeed="max" /><trip id="bus_738137_18" depart="2769.92" from="366949696" to="683268248#0" departLane="best" type="bus_bus" departSpeed="max" /><trip id="bus_738137_19" depart="1133.15" from="366949696" to="683268248#0" departLane="best" type="bus_bus" departSpeed="max" /><trip id="bus_738137_20" depart="3525.35" from="561748189" to="683268248#0" departLane="best" type="bus_bus" /><trip id="bus_738137_21" depart="1007.24" from="580815653#0" to="852188473" departLane="best" type="bus_bus" departSpeed="max" /><trip id="bus_738137_22" depart="2518.11" from="580815653#0" to="427550891#0" departLane="best" type="bus_bus" departSpeed="max" /><trip id="bus_738137_enh_23" depart="3.85" from="561748189" to="366952449#0" type="bus_bus" color="255,255,0" departLane="best" departSpeed="max" departPos="random" speedFactor="0.86" /><trip id="bus_738137_enh_24" depart="8.46" from="366949696" to="158466192#0" type="bus_bus" color="255,165,0" departLane="best" departSpeed="max" departPos="random" speedFactor="0.85" /><trip id="bus_738137_enh_25" depart="12.06" from="366949696" to="561748189" type="bus_bus" color="255,255,255" departLane="best" departSpeed="max" departPos="random" speedFactor="1.0" /><trip id="bus_738137_enh_26" depart="176.22" from="-678188678" to="561748193" type="bus_bus" color="0,0,255" departLane="best" departSpeed="max" departPos="random" speedFactor="1.07" /><trip id="bus_738137_enh_27" depart="242.13" from="158466192#0" to="624604434" type="bus_bus" color="255,255,0" departLane="best" departSpeed="max" departPos="random" speedFactor="1.02" /><trip id="bus_738137_enh_28" depart="253.69" from="366949696" to="683268248#0" type="bus_bus" color="0,128,0" departLane="best" departSpeed="max" departPos="random" speedFactor="1.14" /><trip id="bus_738137_enh_29" depart="329.52" from="366949696" to="573710409#0" type="bus_bus" color="255,255,255" departLane="best" departSpeed="max" departPos="random" speedFactor="0.98" /><trip id="bus_738137_enh_30" depart="451.71" from="427551860" to="624604434" type="bus_bus" color="255,165,0" departLane="best" departSpeed="max" departPos="random" speedFactor="0.88" /><trip id="bus_738137_enh_31" depart="509.78" from="366949696" to="561748189" type="bus_bus" color="128,128,128" departLane="best" departSpeed="max" departPos="random" speedFactor="0.92" /><trip id="bus_738137_enh_32" depart="521.57" from="651079990" to="624604434" type="bus_bus" color="255,165,0" departLane="best" departSpeed="max" departPos="random" speedFactor="1.11" /><trip id="bus_738137_enh_33" depart="688.17" from="580815653#0" to="561748189" type="bus_bus" color="0,128,0" departLane="best" departSpeed="max" departPos="random" speedFactor="1.11" /><trip id="bus_738137_enh_34" depart="697.68" from="870991319#0" to="366952449#0" type="bus_bus" color="255,255,255" departLane="best" departSpeed="max" departPos="random" speedFactor="1.06" /><trip id="bus_738137_enh_35" depart="783.40" from="624604435#0" to="683268248#0" type="bus_bus" color="255,255,0" departLane="best" departSpeed="max" departPos="random" speedFactor="1.01" /><trip id="bus_738137_enh_36" depart="861.34" from="561748189" to="366952449#0" type="bus_bus" color="255,165,0" departLane="best" departSpeed="max" departPos="random" speedFactor="1.04" /><trip id="bus_738137_enh_37" depart="924.10" from="651079990" to="683268248#0" type="bus_bus" color="255,0,0" departLane="best" departSpeed="max" departPos="random" speedFactor="1.09" /><trip id="bus_738137_enh_38" depart="1018.61" from="870991319#0" to="366952449#0" type="bus_bus" color="0,128,0" departLane="best" departSpeed="max" departPos="random" speedFactor="1.03" /><trip id="bus_738137_enh_39" depart="1052.84" from="561748189" to="683268248#0" type="bus_bus" color="255,255,0" departLane="best" departSpeed="max" departPos="random" speedFactor="1.0" /><trip id="bus_738137_enh_40" depart="1155.11" from="580815653#0" to="366952449#0" type="bus_bus" color="255,0,0" departLane="best" departSpeed="max" departPos="random" speedFactor="1.07" /><trip id="bus_738137_enh_41" depart="1202.78" from="767517245" to="775185678" type="bus_bus" color="255,165,0" departLane="best" departSpeed="max" departPos="random" speedFactor="0.91" /><trip id="bus_738137_enh_42" depart="1316.75" from="580815653#0" to="366952449#0" type="bus_bus" color="255,0,0" departLane="best" departSpeed="max" departPos="random" speedFactor="0.93" /><trip id="bus_738137_enh_43" depart="1383.08" from="580815653#0" to="624604434" type="bus_bus" color="255,0,0" departLane="best" departSpeed="max" departPos="random" speedFactor="1.15" /><trip id="bus_738137_enh_44" depart="1405.11" from="561748193" to="683268248#0" type="bus_bus" color="0,128,0" departLane="best" departSpeed="max" departPos="random" speedFactor="0.92" /><trip id="bus_738137_enh_45" depart="1549.55" from="366949696" to="427550891#0" type="bus_bus" color="0,0,255" departLane="best" departSpeed="max" departPos="random" speedFactor="0.99" /><trip id="bus_738137_enh_46" depart="1569.21" from="775185671" to="683268239" type="bus_bus" color="255,0,0" departLane="best" departSpeed="max" departPos="random" speedFactor="0.96" /><trip id="bus_738137_enh_47" depart="1620.00" from="580815653#0" to="427550891#0" type="bus_bus" color="255,255,0" departLane="best" departSpeed="max" departPos="random" speedFactor="1.05" /><trip id="bus_738137_enh_48" depart="1716.49" from="366949696" to="366952449#0" type="bus_bus" color="128,128,128" departLane="best" departSpeed="max" departPos="random" speedFactor="0.93" /><trip id="bus_738137_enh_49" depart="1828.45" from="775185671" to="683268239" type="bus_bus" color="255,255,0" departLane="best" departSpeed="max" departPos="random" speedFactor="1.02" /><trip id="bus_738137_enh_50" depart="1859.31" from="580815653#0" to="427550891#0" type="bus_bus" color="255,255,0" departLane="best" departSpeed="max" departPos="random" speedFactor="0.9" /><trip id="bus_738137_enh_51" depart="1900.86" from="580815653#0" to="1054125801" type="bus_bus" color="255,165,0" departLane="best" departSpeed="max" departPos="random" speedFactor="1.15" /><trip id="bus_738137_enh_52" depart="2074.42" from="-678188678" to="624604434" type="bus_bus" color="255,255,255" departLane="best" departSpeed="max" departPos="random" speedFactor="0.99" /><trip id="bus_738137_enh_53" depart="2080.11" from="366949696" to="427550891#0" type="bus_bus" color="255,165,0" departLane="best" departSpeed="max" departPos="random" speedFactor="0.86" /><trip id="bus_738137_enh_54" depart="2091.11" from="366949696" to="366952449#0" type="bus_bus" color="0,0,255" departLane="best" departSpeed="max" departPos="random" speedFactor="1.1" /><trip id="bus_738137_enh_55" depart="2240.08" from="580815653#0" to="561748189" type="bus_bus" color="128,128,128" departLane="best" departSpeed="max" departPos="random" speedFactor="1.14" /><trip id="bus_738137_enh_56" depart="2317.85" from="580815653#0" to="852188473" type="bus_bus" color="255,165,0" departLane="best" departSpeed="max" departPos="random" speedFactor="0.92" /><trip id="bus_738137_enh_57" depart="2337.48" from="651079990" to="1054125801" type="bus_bus" color="255,255,0" departLane="best" departSpeed="max" departPos="random" speedFactor="0.96" /><trip id="bus_738137_enh_58" depart="2409.24" from="580815653#0" to="852188473" type="bus_bus" color="128,128,128" departLane="best" departSpeed="max" departPos="random" speedFactor="0.89" /><trip id="bus_738137_enh_59" depart="2556.42" from="580815653#0" to="1054125801" type="bus_bus" color="0,128,0" departLane="best" departSpeed="max" departPos="random" speedFactor="0.88" /><trip id="bus_738137_enh_60" depart="2565.55" from="-678188678" to="683268248#0" type="bus_bus" color="128,128,128" departLane="best" departSpeed="max" departPos="random" speedFactor="0.87" /><trip id="bus_738137_enh_61" depart="2605.55" from="651079990" to="624604434" type="bus_bus" color="255,255,0" departLane="best" departSpeed="max" departPos="random" speedFactor="1.09" /><trip id="bus_738137_enh_62" depart="2755.45" from="-678188678" to="683268248#0" type="bus_bus" color="0,0,255" departLane="best" departSpeed="max" departPos="random" speedFactor="0.99" /><trip id="bus_738137_enh_63" depart="2784.85" from="561748193" to="683268248#0" type="bus_bus" color="0,128,0" departLane="best" departSpeed="max" departPos="random" speedFactor="0.86" /><trip id="bus_738137_enh_64" depart="2872.53" from="580815653#0" to="1054125801" type="bus_bus" color="0,0,255" departLane="best" departSpeed="max" departPos="random" speedFactor="0.91" /><trip id="bus_738137_enh_65" depart="2911.04" from="366949696" to="683268248#0" type="bus_bus" color="128,128,128" departLane="best" departSpeed="max" departPos="random" speedFactor="1.02" /><trip id="bus_738137_enh_66" depart="3023.75" from="561748193" to="683268248#0" type="bus_bus" color="255,255,0" departLane="best" departSpeed="max" departPos="random" speedFactor="1.12" /><trip id="bus_738137_enh_67" depart="3087.32" from="580815653#0" to="1054125801" type="bus_bus" color="128,128,128" departLane="best" departSpeed="max" departPos="random" speedFactor="1.11" /><trip id="bus_738137_enh_68" depart="3139.43" from="-678188678" to="683268248#0" type="bus_bus" color="255,0,0" departLane="best" departSpeed="max" departPos="random" speedFactor="1.09" /><trip id="bus_738137_enh_69" depart="3257.93" from="580815653#0" to="427550891#0" type="bus_bus" color="255,165,0" departLane="best" departSpeed="max" departPos="random" speedFactor="1.03" /><trip id="bus_738137_enh_70" depart="3269.52" from="580815653#0" to="624604434" type="bus_bus" color="255,255,255" departLane="best" departSpeed="max" departPos="random" speedFactor="1.09" /><trip id="bus_738137_enh_71" depart="3394.69" from="561748193" to="683268248#0" type="bus_bus" color="0,0,255" departLane="best" departSpeed="max" departPos="random" speedFactor="1.12" /><trip id="bus_738137_enh_72" depart="3435.11" from="580815653#0" to="624604434" type="bus_bus" color="255,165,0" departLane="best" departSpeed="max" departPos="random" speedFactor="1.14" /><trip id="bus_738137_enh_73" depart="3509.50" from="580815653#0" to="624604434" type="bus_bus" color="0,128,0" departLane="best" departSpeed="max" departPos="random" speedFactor="0.96" /></routes>