<?xml version='1.0' encoding='utf-8'?>
<routes xmlns:xsi="http://www.w3.org/2001/XMLSchema-instance" xsi:noNamespaceSchemaLocation="http://sumo.dlr.de/xsd/routes_file.xsd"><vType id="truck_truck" vClass="truck" guiShape="truck" color="255,255,255" maxSpeed="25.0" length="10.0" />
    <trip id="truck_741335_0" depart="1447.91" from="366949696" to="683268248#0" departLane="best" type="truck_truck" departSpeed="max" /><trip id="truck_741335_1" depart="3588.30" from="-678188678" to="683268248#0" departLane="best" type="truck_truck" departSpeed="max" /><trip id="truck_741335_2" depart="2895.82" from="-678188678" to="683268248#0" departLane="best" type="truck_truck" departSpeed="max" /><trip id="truck_741335_3" depart="2644.01" from="-678188678" to="683268248#0" departLane="best" type="truck_truck" departSpeed="max" /><trip id="truck_741335_4" depart="566.57" from="870991319#0" to="683268248#0" departLane="best" type="truck_truck" departSpeed="max" /><trip id="truck_741335_5" depart="2329.25" from="580815653#0" to="624604434" departLane="best" type="truck_truck" departSpeed="max" /><trip id="truck_741335_6" depart="2455.15" from="580815653#0" to="427550891#0" departLane="best" type="truck_truck" departSpeed="max" /><trip id="truck_741335_7" depart="1133.15" from="-678188678" to="683268248#0" departLane="best" type="truck_truck" departSpeed="max" /><trip id="truck_741335_8" depart="62.95" from="870991319#0" to="683268248#0" departLane="best" type="truck_truck" departSpeed="max" /><trip id="truck_741335_9" depart="692.48" from="366949696" to="683268248#0" departLane="best" type="truck_truck" departSpeed="max" /><trip id="truck_741335_10" depart="2706.96" from="-678188678" to="683268248#0" departLane="best" type="truck_truck" departSpeed="max" /><trip id="truck_741335_11" depart="3336.49" from="580815653#0" to="427550891#0" departLane="best" type="truck_truck" departSpeed="max" /><trip id="truck_741335_12" depart="1699.72" from="580815653#0" to="427550891#0" departLane="best" type="truck_truck" departSpeed="max" /><trip id="truck_741335_13" depart="3273.54" from="870991319#0" to="683268248#0" departLane="best" type="truck_truck" departSpeed="max" /><trip id="truck_741335_14" depart="3399.44" from="870991319#0" to="683268248#0" departLane="best" type="truck_truck" departSpeed="max" /><trip id="truck_741335_15" depart="2769.92" from="580815653#0" to="852188473" departLane="best" type="truck_truck" departSpeed="max" /><trip id="truck_741335_16" depart="629.53" from="366949696" to="683268248#0" departLane="best" type="truck_truck" departSpeed="max" /><trip id="truck_741335_17" depart="1196.10" from="-678188678" to="683268248#0" departLane="best" type="truck_truck" departSpeed="max" /><trip id="truck_741335_18" depart="1384.96" from="366949696" to="683268248#0" departLane="best" type="truck_truck" departSpeed="max" /><trip id="truck_741335_19" depart="2832.87" from="-678188678" to="683268248#0" departLane="best" type="truck_truck" departSpeed="max" /><trip id="truck_741335_20" depart="440.67" from="580815653#0" to="427550891#0" departLane="best" type="truck_truck" departSpeed="max" /><trip id="truck_741335_21" depart="503.62" from="580815653#0" to="427550891#0" departLane="best" type="truck_truck" departSpeed="max" /><trip id="truck_741335_22" depart="3147.63" from="366949696" to="683268248#0" departLane="best" type="truck_truck" departSpeed="max" /><trip id="truck_741335_23" depart="2392.20" from="366949696" to="683268248#0" departLane="best" type="truck_truck" departSpeed="max" /><trip id="truck_741335_24" depart="1322.01" from="366949696" to="683268248#0" departLane="best" type="truck_truck" departSpeed="max" /><trip id="truck_741335_25" depart="2077.44" from="-678188678" to="683268248#0" departLane="best" type="truck_truck" departSpeed="max" /><trip id="truck_741335_26" depart="881.34" from="870991319#0" to="683268248#0" departLane="best" type="truck_truck" departSpeed="max" /><trip id="truck_741335_27" depart="188.86" from="870991319#0" to="683268248#0" departLane="best" type="truck_truck" departSpeed="max" /><trip id="truck_741335_28" depart="1007.24" from="-678188678" to="683268248#0" departLane="best" type="truck_truck" departSpeed="max" /><trip id="truck_741335_29" depart="377.72" from="-678188678" to="683268248#0" departLane="best" type="truck_truck" departSpeed="max" /><trip id="truck_741335_30" depart="1762.67" from="870991319#0" to="683268248#0" departLane="best" type="truck_truck" departSpeed="max" /><trip id="truck_741335_31" depart="3210.58" from="366949696" to="683268248#0" departLane="best" type="truck_truck" departSpeed="max" /><trip id="truck_741335_32" depart="2140.39" from="366949696" to="683268248#0" departLane="best" type="truck_truck" departSpeed="max" /><trip id="truck_741335_33" depart="2958.77" from="580815653#0" to="427550891#0" departLane="best" type="truck_truck" departSpeed="max" /><trip id="truck_741335_34" depart="1888.58" from="366949696" to="683268248#0" departLane="best" type="truck_truck" departSpeed="max" /><trip id="truck_741335_35" depart="944.29" from="870991319#0" to="683268248#0" departLane="best" type="truck_truck" departSpeed="max" /><trip id="truck_741335_36" depart="2203.34" from="580815653#0" to="427550891#0" departLane="best" type="truck_truck" departSpeed="max" /><trip id="truck_741335_37" depart="1636.77" from="-678188678" to="683268248#0" departLane="best" type="truck_truck" departSpeed="max" /><trip id="truck_741335_38" depart="3462.40" from="561748193" to="683268248#0" departLane="best" type="truck_truck" /><trip id="truck_741335_39" depart="1259.05" from="-678188678" to="683268248#0" departLane="best" type="truck_truck" departSpeed="max" /><trip id="truck_741335_40" depart="1951.53" from="-678188678" to="683268248#0" departLane="best" type="truck_truck" departSpeed="max" /><trip id="truck_741335_41" depart="818.38" from="870991319#0" to="683268248#0" departLane="best" type="truck_truck" departSpeed="max" /><trip id="truck_741335_42" depart="3084.68" from="580815653#0" to="561748193" departLane="best" type="truck_truck" departSpeed="max" /><trip id="truck_741335_43" depart="3525.35" from="580815653#0" to="427550891#0" departLane="best" type="truck_truck" departSpeed="max" /><trip id="truck_741335_44" depart="1510.86" from="561748189" to="683268248#0" departLane="best" type="truck_truck" /><trip id="truck_741335_45" depart="251.81" from="-678188678" to="683268248#0" departLane="best" type="truck_truck" departSpeed="max" /><trip id="truck_741335_enh_46" depart="0.00" from="580815653#0" to="366952449#0" type="truck_truck" color="255,255,0" departLane="best" departSpeed="max" departPos="random" speedFactor="1.12" /><trip id="truck_741335_enh_47" depart="0.00" from="-678188678" to="624604434" type="truck_truck" color="0,0,255" departLane="best" departSpeed="max" departPos="random" speedFactor="1.09" /><trip id="truck_741335_enh_48" depart="0.00" from="651079990" to="683268248#0" type="truck_truck" color="255,255,0" departLane="best" departSpeed="max" departPos="random" speedFactor="1.02" /><trip id="truck_741335_enh_49" depart="1.20" from="852188473" to="683268248#0" type="truck_truck" color="0,128,0" departLane="best" departSpeed="max" departPos="random" speedFactor="0.89" /><trip id="truck_741335_enh_50" depart="183.54" from="580815653#0" to="1054125801" type="truck_truck" color="0,0,255" departLane="best" departSpeed="max" departPos="random" speedFactor="0.9" /><trip id="truck_741335_enh_51" depart="238.55" from="580815653#0" to="852188473" type="truck_truck" color="255,0,0" departLane="best" departSpeed="max" departPos="random" speedFactor="0.97" /><trip id="truck_741335_enh_52" depart="259.53" from="-678188678" to="1054125801" type="truck_truck" color="255,255,0" departLane="best" departSpeed="max" departPos="random" speedFactor="1.04" /><trip id="truck_741335_enh_53" depart="347.06" from="-678188678" to="183689805#0" type="truck_truck" color="128,128,128" departLane="best" departSpeed="max" departPos="random" speedFactor="0.9" /><trip id="truck_741335_enh_54" depart="456.34" from="651079990" to="1054125801" type="truck_truck" color="0,0,0" departLane="best" departSpeed="max" departPos="random" speedFactor="0.86" /><trip id="truck_741335_enh_55" depart="459.40" from="870991319#0" to="683268248#0" type="truck_truck" color="255,0,0" departLane="best" departSpeed="max" departPos="random" speedFactor="1.01" /><trip id="truck_741335_enh_56" depart="515.01" from="573710409#0" to="683268248#0" type="truck_truck" color="0,128,0" departLane="best" departSpeed="max" departPos="random" speedFactor="0.89" /><trip id="truck_741335_enh_57" depart="519.41" from="624604436" to="683268248#0" type="truck_truck" color="0,128,0" departLane="best" departSpeed="max" departPos="random" speedFactor="1.0" /><trip id="truck_741335_enh_58" depart="713.19" from="561748189" to="366952449#0" type="truck_truck" color="0,0,255" departLane="best" departSpeed="max" departPos="random" speedFactor="0.87" /><trip id="truck_741335_enh_59" depart="715.12" from="624604435#0" to="683268248#0" type="truck_truck" color="255,0,0" departLane="best" departSpeed="max" departPos="random" speedFactor="1.04" /><trip id="truck_741335_enh_60" depart="783.79" from="366949696" to="683268248#0" type="truck_truck" color="255,255,255" departLane="best" departSpeed="max" departPos="random" speedFactor="0.87" /><trip id="truck_741335_enh_61" depart="888.04" from="573710409#0" to="683268248#0" type="truck_truck" color="255,255,0" departLane="best" departSpeed="max" departPos="random" speedFactor="0.88" /><trip id="truck_741335_enh_62" depart="888.26" from="580815653#0" to="1054125801" type="truck_truck" color="0,0,0" departLane="best" departSpeed="max" departPos="random" speedFactor="1.08" /><trip id="truck_741335_enh_63" depart="942.98" from="580815653#0" to="852188473" type="truck_truck" color="255,0,0" departLane="best" departSpeed="max" departPos="random" speedFactor="0.95" /><trip id="truck_741335_enh_64" depart="1055.89" from="580815653#0" to="1054125801" type="truck_truck" color="128,128,128" departLane="best" departSpeed="max" departPos="random" speedFactor="1.11" /><trip id="truck_741335_enh_65" depart="1056.46" from="580815653#0" to="427550891#0" type="truck_truck" color="0,0,0" departLane="best" departSpeed="max" departPos="random" speedFactor="0.9" /><trip id="truck_741335_enh_66" depart="1186.70" from="870991319#0" to="683268248#0" type="truck_truck" color="255,255,0" departLane="best" departSpeed="max" departPos="random" speedFactor="1.06" /><trip id="truck_741335_enh_67" depart="1220.20" from="366949696" to="366952449#0" type="truck_truck" color="255,255,255" departLane="best" departSpeed="max" departPos="random" speedFactor="1.11" /><trip id="truck_741335_enh_68" depart="1314.52" from="580815653#0" to="427550891#0" type="truck_truck" color="255,255,0" departLane="best" departSpeed="max" departPos="random" speedFactor="0.86" /><trip id="truck_741335_enh_69" depart="1350.98" from="580815653#0" to="624604434" type="truck_truck" color="255,255,0" departLane="best" departSpeed="max" departPos="random" speedFactor="0.89" /><trip id="truck_741335_enh_70" depart="1385.04" from="366949696" to="366952449#0" type="truck_truck" color="0,0,255" departLane="best" departSpeed="max" departPos="random" speedFactor="0.88" /><trip id="truck_741335_enh_71" depart="1429.67" from="580815653#0" to="561748189" type="truck_truck" color="255,255,0" departLane="best" departSpeed="max" departPos="random" speedFactor="0.87" /><trip id="truck_741335_enh_72" depart="1584.04" from="580815653#0" to="624604436" type="truck_truck" color="255,255,255" departLane="best" departSpeed="max" departPos="random" speedFactor="1.09" /><trip id="truck_741335_enh_73" depart="1585.58" from="366949696" to="366952449#0" type="truck_truck" color="128,128,128" departLane="best" departSpeed="max" departPos="random" speedFactor="0.99" /><trip id="truck_741335_enh_74" depart="1649.42" from="366949696" to="366952449#0" type="truck_truck" color="0,0,255" departLane="best" departSpeed="max" departPos="random" speedFactor="0.86" /><trip id="truck_741335_enh_75" depart="1760.29" from="580815653#0" to="427550891#0" type="truck_truck" color="128,128,128" departLane="best" departSpeed="max" departPos="random" speedFactor="0.91" /><trip id="truck_741335_enh_76" depart="1803.39" from="870991319#0" to="683268248#0" type="truck_truck" color="255,255,0" departLane="best" departSpeed="max" departPos="random" speedFactor="1.02" /><trip id="truck_741335_enh_77" depart="1846.97" from="580815653#0" to="852188473" type="truck_truck" color="255,255,255" departLane="best" departSpeed="max" departPos="random" speedFactor="1.12" /><trip id="truck_741335_enh_78" depart="1900.17" from="-678188678" to="683268248#0" type="truck_truck" color="255,255,0" departLane="best" departSpeed="max" departPos="random" speedFactor="1.11" /><trip id="truck_741335_enh_79" depart="1931.29" from="651079990" to="624604434" type="truck_truck" color="255,0,0" departLane="best" departSpeed="max" departPos="random" speedFactor="1.09" /><trip id="truck_741335_enh_80" depart="2106.23" from="-678188678" to="683268248#0" type="truck_truck" color="0,128,0" departLane="best" departSpeed="max" departPos="random" speedFactor="1.03" /><trip id="truck_741335_enh_81" depart="2114.52" from="580815653#0" to="624604434" type="truck_truck" color="0,0,0" departLane="best" departSpeed="max" departPos="random" speedFactor="1.09" /><trip id="truck_741335_enh_82" depart="2138.93" from="561748193" to="683268248#0" type="truck_truck" color="128,128,128" departLane="best" departSpeed="max" departPos="random" speedFactor="1.12" /><trip id="truck_741335_enh_83" depart="2252.99" from="580815653#0" to="852188473" type="truck_truck" color="0,128,0" departLane="best" departSpeed="max" departPos="random" speedFactor="1.14" /><trip id="truck_741335_enh_84" depart="2278.11" from="366949696" to="683268248#0" type="truck_truck" color="0,0,255" departLane="best" departSpeed="max" departPos="random" speedFactor="0.96" /><trip id="truck_741335_enh_85" depart="2381.81" from="580815653#0" to="624604434" type="truck_truck" color="255,255,255" departLane="best" departSpeed="max" departPos="random" speedFactor="1.06" /><trip id="truck_741335_enh_86" depart="2391.19" from="561748189" to="683268248#0" type="truck_truck" color="255,255,0" departLane="best" departSpeed="max" departPos="random" speedFactor="1.09" /><trip id="truck_741335_enh_87" depart="2461.28" from="561748189" to="683268248#0" type="truck_truck" color="0,128,0" departLane="best" departSpeed="max" departPos="random" speedFactor="1.1" /><trip id="truck_741335_enh_88" depart="2601.61" from="366949696" to="683268248#0" type="truck_truck" color="255,255,255" departLane="best" departSpeed="max" departPos="random" speedFactor="0.96" /><trip id="truck_741335_enh_89" depart="2625.67" from="580815653#0" to="852188473" type="truck_truck" color="128,128,128" departLane="best" departSpeed="max" departPos="random" speedFactor="1.05" /><trip id="truck_741335_enh_90" depart="2667.39" from="580815653#0" to="624604434" type="truck_truck" color="255,255,255" departLane="best" departSpeed="max" departPos="random" speedFactor="0.97" /><trip id="truck_741335_enh_91" depart="2680.51" from="580815653#0" to="624604434" type="truck_truck" color="0,0,255" departLane="best" departSpeed="max" departPos="random" speedFactor="1.05" /><trip id="truck_741335_enh_92" depart="2801.08" from="561748193" to="683268248#0" type="truck_truck" color="0,128,0" departLane="best" departSpeed="max" departPos="random" speedFactor="1.03" /><trip id="truck_741335_enh_93" depart="2835.36" from="580815653#0" to="624604434" type="truck_truck" color="255,0,0" departLane="best" departSpeed="max" departPos="random" speedFactor="0.99" /><trip id="truck_741335_enh_94" depart="2919.10" from="580815653#0" to="852188473" type="truck_truck" color="0,128,0" departLane="best" departSpeed="max" departPos="random" speedFactor="1.02" /><trip id="truck_741335_enh_95" depart="2988.76" from="561748189" to="683268248#0" type="truck_truck" color="255,255,255" departLane="best" departSpeed="max" departPos="random" speedFactor="0.97" /><trip id="truck_741335_enh_96" depart="3077.33" from="366949696" to="683268248#0" type="truck_truck" color="255,0,0" departLane="best" departSpeed="max" departPos="random" speedFactor="0.97" /><trip id="truck_741335_enh_97" depart="3125.62" from="580815653#0" to="683268248#0" via="624604436" type="truck_truck" color="0,0,0" departLane="best" departSpeed="max" departPos="random" speedFactor="0.96" /><trip id="truck_741335_enh_98" depart="3148.33" from="651079990" to="683268248#0" via="561748193" type="truck_truck" color="0,0,255" departLane="best" departSpeed="max" departPos="random" speedFactor="0.97" /><trip id="truck_741335_enh_99" depart="3177.25" from="580815653#0" to="366952449#0" via="561748189" type="truck_truck" color="0,128,0" departLane="best" departSpeed="max" departPos="random" speedFactor="0.98" /><trip id="truck_741335_enh_100" depart="3316.59" from="651079990" to="683268248#0" via="561748189" type="truck_truck" color="255,255,0" departLane="best" departSpeed="max" departPos="random" speedFactor="0.95" /><trip id="truck_741335_enh_101" depart="3335.67" from="-678188678" to="683268248#0" via="561748189" type="truck_truck" color="255,255,255" departLane="best" departSpeed="max" departPos="random" speedFactor="1.14" /><trip id="truck_741335_enh_102" depart="3467.65" from="580815653#0" to="683268248#0" via="561748189" type="truck_truck" color="255,255,255" departLane="best" departSpeed="max" departPos="random" speedFactor="0.89" /><trip id="truck_741335_enh_103" depart="3512.40" from="651079990" to="683268248#0" via="561748189" type="truck_truck" color="255,255,255" departLane="best" departSpeed="max" departPos="random" speedFactor="0.88" /><trip id="truck_741335_enh_104" depart="3568.52" from="651079990" to="683268248#0" via="561748193" type="truck_truck" color="255,0,0" departLane="best" departSpeed="max" departPos="random" speedFactor="1.0" /><trip id="truck_741335_enh_105" depart="3569.02" from="651079990" to="683268248#0" via="561748189" type="truck_truck" color="0,0,0" departLane="best" departSpeed="max" departPos="random" speedFactor="1.05" /></routes>