<?xml version="1.0" encoding="UTF-8"?>

<!-- generated on 2025-09-03 00:52:08.774367 by osmWebWizard.py v1_24_0+0000-b72eb3fabc8
<configuration>
    <net-file value="C:\Users\kgaqu\OneDrive\Documents\4th Year\Capstone 2\v10\osm_importer\osm_scenarios\2025-09-03-00-52-05\osm.net.xml.gz"/>
    <output-trip-file value="C:\Users\kgaqu\OneDrive\Documents\4th Year\Capstone 2\v10\osm_importer\osm_scenarios\2025-09-03-00-52-05\osm.passenger.trips.xml"/>
    <route-file value="C:\Users\kgaqu\OneDrive\Documents\4th Year\Capstone 2\v10\osm_importer\osm_scenarios\2025-09-03-00-52-05\osm.passenger.rou.xml"/>
    <prefix value="veh"/>
    <trip-attributes value="departLane=&quot;best&quot;"/>
    <fringe-start-attributes value="departSpeed=&quot;max&quot;"/>
    <vehicle-class value="passenger"/>
    <lanes value="True"/>
    <fringe-factor value="5"/>
    <allow-fringe.min-length value="1000.0"/>
    <edge-permission value="passenger"/>
    <via-edge-types value="highway.motorway,highway.motorway_link,highway.trunk_link,highway.primary_link,highway.secondary_link,highway.tertiary_link"/>
    <seed value="45"/>
    <min-distance value="300.0"/>
    <min-distance.fringe value="10.0"/>
    <remove-loops value="True"/>
    <insertion-density value="12.0"/>
</configuration>
-->

<routes xmlns:xsi="http://www.w3.org/2001/XMLSchema-instance" xsi:noNamespaceSchemaLocation="http://sumo.dlr.de/xsd/routes_file.xsd">
    <vType id="veh_passenger" vClass="passenger"/>
    <trip id="veh0" depart="0.00" from="1252226316" to="-333292211#2" departLane="best" type="veh_passenger"/>
    <trip id="veh1" depart="38.57" from="-587063887#6" to="-333292211#2" departLane="best" type="veh_passenger" departSpeed="max"/>
    <trip id="veh2" depart="77.14" from="1252226316" to="-1296098178" departLane="best" type="veh_passenger"/>
    <trip id="veh3" depart="115.72" from="1252226318#0" to="1296098177" departLane="best" type="veh_passenger"/>
    <trip id="veh4" depart="154.29" from="-587063887#6" to="421085682" departLane="best" type="veh_passenger" departSpeed="max"/>
    <trip id="veh5" depart="192.86" from="421085682" to="-1296098178" departLane="best" type="veh_passenger"/>
    <trip id="veh6" depart="231.43" from="587063904" to="1296098177" departLane="best" type="veh_passenger" departSpeed="max"/>
    <trip id="veh7" depart="270.01" from="-587063887#6" to="-333292211#2" departLane="best" type="veh_passenger" departSpeed="max"/>
    <trip id="veh8" depart="308.58" from="1296098178" to="587063887#0" departLane="best" type="veh_passenger" departSpeed="max"/>
    <trip id="veh9" depart="347.15" from="-587063887#6" to="-333292211#2" departLane="best" type="veh_passenger" departSpeed="max"/>
    <trip id="veh10" depart="385.72" from="421085682" to="587063887#0" departLane="best" type="veh_passenger"/>
    <trip id="veh11" depart="424.30" from="-587063887#6" to="-1296098178" departLane="best" type="veh_passenger" departSpeed="max"/>
    <trip id="veh12" depart="462.87" from="421085682" to="-333292211#2" departLane="best" type="veh_passenger"/>
    <trip id="veh13" depart="501.44" from="1252226323" to="587063887#0" departLane="best" type="veh_passenger"/>
    <trip id="veh14" depart="540.01" from="587063904" to="1296098177" departLane="best" type="veh_passenger" departSpeed="max"/>
    <trip id="veh15" depart="578.59" from="587063904" to="587063887#0" departLane="best" type="veh_passenger" departSpeed="max"/>
    <trip id="veh16" depart="617.16" from="1296098178" to="-333292211#2" departLane="best" type="veh_passenger" departSpeed="max"/>
    <trip id="veh17" depart="655.73" from="1252226326" to="587063887#0" departLane="best" type="veh_passenger"/>
    <trip id="veh18" depart="694.30" from="-587063887#6" to="-333292211#2" departLane="best" type="veh_passenger" departSpeed="max"/>
    <trip id="veh19" depart="732.88" from="-587063887#6" to="-333292211#2" departLane="best" type="veh_passenger" departSpeed="max"/>
    <trip id="veh20" depart="771.45" from="587063904" to="1252226326" departLane="best" type="veh_passenger" departSpeed="max"/>
    <trip id="veh21" depart="810.02" from="-1252226314" to="587063887#0" departLane="best" type="veh_passenger"/>
    <trip id="veh22" depart="848.59" from="1296098178" to="1252226316" departLane="best" type="veh_passenger" departSpeed="max"/>
    <trip id="veh23" depart="887.17" from="1252226316" to="-333292211#2" departLane="best" type="veh_passenger"/>
    <trip id="veh24" depart="925.74" from="-587063887#6" to="1252226326" departLane="best" type="veh_passenger" departSpeed="max"/>
    <trip id="veh25" depart="964.31" from="-1293084433" to="587063887#0" departLane="best" type="veh_passenger"/>
    <trip id="veh26" depart="1002.88" from="-587063887#6" to="1252226326" departLane="best" type="veh_passenger" departSpeed="max"/>
    <trip id="veh27" depart="1041.46" from="1296098178" to="-333292211#2" departLane="best" type="veh_passenger" departSpeed="max"/>
    <trip id="veh28" depart="1080.03" from="1252226316" to="-333292211#2" departLane="best" type="veh_passenger"/>
    <trip id="veh29" depart="1118.60" from="1296098178" to="1252226316" departLane="best" type="veh_passenger" departSpeed="max"/>
    <trip id="veh30" depart="1157.17" from="1296098178" to="1252226316" departLane="best" type="veh_passenger" departSpeed="max"/>
    <trip id="veh31" depart="1195.75" from="-587063887#6" to="-1252226314" departLane="best" type="veh_passenger" departSpeed="max"/>
    <trip id="veh32" depart="1234.32" from="587063904" to="587063887#0" departLane="best" type="veh_passenger" departSpeed="max"/>
    <trip id="veh33" depart="1272.89" from="-587063887#6" to="1252226326" departLane="best" type="veh_passenger" departSpeed="max"/>
    <trip id="veh34" depart="1311.46" from="587063900#0" to="587063887#0" departLane="best" type="veh_passenger"/>
    <trip id="veh35" depart="1350.04" from="-587063887#6" to="1287697069" departLane="best" type="veh_passenger" departSpeed="max"/>
    <trip id="veh36" depart="1388.61" from="421085682" to="-333292211#2" departLane="best" type="veh_passenger"/>
    <trip id="veh37" depart="1427.18" from="1252226326" to="-333292211#2" departLane="best" type="veh_passenger"/>
    <trip id="veh38" depart="1465.75" from="1296098178" to="587063887#0" departLane="best" type="veh_passenger" departSpeed="max"/>
    <trip id="veh39" depart="1504.33" from="587063904" to="1287697069" departLane="best" type="veh_passenger" departSpeed="max"/>
    <trip id="veh40" depart="1542.90" from="-587063887#6" to="-333292211#2" departLane="best" type="veh_passenger" departSpeed="max"/>
    <trip id="veh41" depart="1581.47" from="587063904" to="-1296098178" departLane="best" type="veh_passenger" departSpeed="max"/>
    <trip id="veh42" depart="1620.04" from="1296098177" to="1287697069" departLane="best" type="veh_passenger"/>
    <trip id="veh43" depart="1658.62" from="1296098178" to="1252226323" departLane="best" type="veh_passenger" departSpeed="max"/>
    <trip id="veh44" depart="1697.19" from="587063904" to="1252226326" departLane="best" type="veh_passenger" departSpeed="max"/>
    <trip id="veh45" depart="1735.76" from="587063904" to="1252226326" departLane="best" type="veh_passenger" departSpeed="max"/>
    <trip id="veh46" depart="1774.33" from="587063904" to="-1296098178" departLane="best" type="veh_passenger" departSpeed="max"/>
    <trip id="veh47" depart="1812.91" from="-587063887#6" to="-1293084433" departLane="best" type="veh_passenger" departSpeed="max"/>
    <trip id="veh48" depart="1851.48" from="1296098178" to="-333292211#2" departLane="best" type="veh_passenger" departSpeed="max"/>
    <trip id="veh49" depart="1890.05" from="1296098178" to="587063887#0" departLane="best" type="veh_passenger" departSpeed="max"/>
    <trip id="veh50" depart="1928.62" from="587063904" to="587063887#0" departLane="best" type="veh_passenger" departSpeed="max"/>
    <trip id="veh51" depart="1967.20" from="587063904" to="1252226318#0" departLane="best" type="veh_passenger" departSpeed="max"/>
    <trip id="veh52" depart="2005.77" from="1252226323" to="587063887#0" departLane="best" type="veh_passenger"/>
    <trip id="veh53" depart="2044.34" from="-1293084433" to="-333292211#2" departLane="best" type="veh_passenger"/>
    <trip id="veh54" depart="2082.91" from="1296098178" to="-333292211#2" departLane="best" type="veh_passenger" departSpeed="max"/>
    <trip id="veh55" depart="2121.49" from="-587063887#6" to="-333292211#2" departLane="best" type="veh_passenger" departSpeed="max"/>
    <trip id="veh56" depart="2160.06" from="1296098178" to="421085682" departLane="best" type="veh_passenger" departSpeed="max"/>
    <trip id="veh57" depart="2198.63" from="-587063887#6" to="1252226326" departLane="best" type="veh_passenger" departSpeed="max"/>
    <trip id="veh58" depart="2237.20" from="1296098178" to="1252226326" departLane="best" type="veh_passenger" departSpeed="max"/>
    <trip id="veh59" depart="2275.78" from="1296098178" to="-333292211#2" departLane="best" type="veh_passenger" departSpeed="max"/>
    <trip id="veh60" depart="2314.35" from="587063904" to="1287697069" departLane="best" type="veh_passenger" departSpeed="max"/>
    <trip id="veh61" depart="2352.92" from="1296098178" to="-333292211#2" departLane="best" type="veh_passenger" departSpeed="max"/>
    <trip id="veh62" depart="2391.49" from="1296098178" to="587063887#0" departLane="best" type="veh_passenger" departSpeed="max"/>
    <trip id="veh63" depart="2430.06" from="-587063887#6" to="1252226318#0" departLane="best" type="veh_passenger" departSpeed="max"/>
    <trip id="veh64" depart="2468.64" from="587063904" to="-1293084433" departLane="best" type="veh_passenger" departSpeed="max"/>
    <trip id="veh65" depart="2507.21" from="1252226326" to="-333292211#2" departLane="best" type="veh_passenger"/>
    <trip id="veh66" depart="2545.78" from="1296098177" to="-333292211#2" departLane="best" type="veh_passenger"/>
    <trip id="veh67" depart="2584.35" from="587063904" to="587063887#0" departLane="best" type="veh_passenger" departSpeed="max"/>
    <trip id="veh68" depart="2622.93" from="587063904" to="-1296098178" departLane="best" type="veh_passenger" departSpeed="max"/>
    <trip id="veh69" depart="2661.50" from="1296098178" to="-333292211#2" departLane="best" type="veh_passenger" departSpeed="max"/>
    <trip id="veh70" depart="2700.07" from="421085682" to="587063887#0" departLane="best" type="veh_passenger"/>
    <trip id="veh71" depart="2738.64" from="587063904" to="1252226316" departLane="best" type="veh_passenger" departSpeed="max"/>
    <trip id="veh72" depart="2777.22" from="1252226326" to="-1296098178" departLane="best" type="veh_passenger"/>
    <trip id="veh73" depart="2815.79" from="1296098177" to="587063887#0" departLane="best" type="veh_passenger"/>
    <trip id="veh74" depart="2854.36" from="587063904" to="-1296098178" departLane="best" type="veh_passenger" departSpeed="max"/>
    <trip id="veh75" depart="2892.93" from="-587063887#6" to="587063900#0" departLane="best" type="veh_passenger" departSpeed="max"/>
    <trip id="veh76" depart="2931.51" from="1296098177" to="1252226326" departLane="best" type="veh_passenger"/>
    <trip id="veh77" depart="2970.08" from="1296098178" to="-333292211#2" departLane="best" type="veh_passenger" departSpeed="max"/>
    <trip id="veh78" depart="3008.65" from="1252226326" to="587063887#0" departLane="best" type="veh_passenger"/>
    <trip id="veh79" depart="3047.22" from="-1293084433" to="587063887#0" departLane="best" type="veh_passenger"/>
    <trip id="veh80" depart="3085.80" from="1252226318#0" to="-333292211#2" departLane="best" type="veh_passenger"/>
    <trip id="veh81" depart="3124.37" from="1252226318#0" to="-333292211#2" departLane="best" type="veh_passenger"/>
    <trip id="veh82" depart="3162.94" from="587063904" to="587063887#0" departLane="best" type="veh_passenger" departSpeed="max"/>
    <trip id="veh83" depart="3201.51" from="587063904" to="587063887#0" departLane="best" type="veh_passenger" departSpeed="max"/>
    <trip id="veh84" depart="3240.09" from="1296098178" to="587063887#0" departLane="best" type="veh_passenger" departSpeed="max"/>
    <trip id="veh85" depart="3278.66" from="1252226326" to="-1296098178" departLane="best" type="veh_passenger"/>
    <trip id="veh86" depart="3317.23" from="-587063887#6" to="-1296098178" departLane="best" type="veh_passenger" departSpeed="max"/>
    <trip id="veh87" depart="3355.80" from="1296098178" to="-333292211#2" departLane="best" type="veh_passenger" departSpeed="max"/>
    <trip id="veh88" depart="3394.38" from="587063904" to="587063887#0" departLane="best" type="veh_passenger" departSpeed="max"/>
    <trip id="veh89" depart="3432.95" from="1252226316" to="-1296098178" departLane="best" type="veh_passenger"/>
    <trip id="veh90" depart="3471.52" from="587063904" to="587063887#0" departLane="best" type="veh_passenger" departSpeed="max"/>
    <trip id="veh91" depart="3510.09" from="587063904" to="1287697069" departLane="best" type="veh_passenger" departSpeed="max"/>
    <trip id="veh92" depart="3548.67" from="587063904" to="-1296098178" departLane="best" type="veh_passenger" departSpeed="max"/>
    <trip id="veh93" depart="3587.24" from="-587063887#6" to="-1296098178" departLane="best" type="veh_passenger" departSpeed="max"/>
</routes>
