<?xml version="1.0" encoding="UTF-8"?>

<!-- generated on 2025-09-03 01:04:11 by Eclipse SUMO duarouter Version 1.24.0
<duarouterConfiguration xmlns:xsi="http://www.w3.org/2001/XMLSchema-instance" xsi:noNamespaceSchemaLocation="http://sumo.dlr.de/xsd/duarouterConfiguration.xsd">

    <input>
        <net-file value="C:\Users\kgaqu\OneDrive\Documents\4th Year\Capstone 2\v10\backend\networks\sm_bacoor_area\sm_bacoor_area.net.xml"/>
        <route-files value="C:\Users\kgaqu\OneDrive\Documents\4th Year\Capstone 2\v10\backend\networks\sm_bacoor_area\routes\osm.bus.trips.xml"/>
    </input>

    <output>
        <output-file value="C:\Users\kgaqu\OneDrive\Documents\4th Year\Capstone 2\v10\backend\networks\sm_bacoor_area\routes\osm.bus.rou.xml"/>
    </output>

    <report>
        <ignore-errors value="true"/>
    </report>

</duarouterConfiguration>
-->

<routes xmlns:xsi="http://www.w3.org/2001/XMLSchema-instance" xsi:noNamespaceSchemaLocation="http://sumo.dlr.de/xsd/routes_file.xsd">
    <vType id="bus_bus" vClass="bus"/>
    <vehicle id="bus0" type="bus_bus" depart="0.00" departLane="best" departSpeed="max">
        <route edges="-587063887#6 1252226318#0 421085682 -333292211#2"/>
    </vehicle>
    <vehicle id="bus1" type="bus_bus" depart="115.72" departLane="best" departSpeed="max">
        <route edges="1296098178 1296098177 1287697069 1252226323 1252226316 587063887#0"/>
    </vehicle>
    <vehicle id="bus2" type="bus_bus" depart="231.43" departLane="best">
        <route edges="-1252226314 -1293084433 -1296098178 1296098178 1296098177 1287697069 1252226323 421085682 -333292211#2"/>
    </vehicle>
    <vehicle id="bus3" type="bus_bus" depart="347.15" departLane="best" departSpeed="max">
        <route edges="587063904 1252226326 1252226316 587063887#0"/>
    </vehicle>
    <vehicle id="bus4" type="bus_bus" depart="462.87" departLane="best">
        <route edges="-1293084433 -1296098178 1296098178 1296098177 1287697069 1252226323 1252226316 587063887#0"/>
    </vehicle>
    <vehicle id="bus5" type="bus_bus" depart="578.59" departLane="best" departSpeed="max">
        <route edges="587063904 1252226326 1252226316 587063887#0 -587063887#6 1252226318#0"/>
    </vehicle>
    <vehicle id="bus6" type="bus_bus" depart="694.30" departLane="best" departSpeed="max">
        <route edges="1296098178 1296098177 1287697069 1252226323 1252226316 587063887#0"/>
    </vehicle>
    <vehicle id="bus7" type="bus_bus" depart="810.02" departLane="best" departSpeed="max">
        <route edges="1296098178 1296098177 1287697069 1252226323 1252226316 587063887#0"/>
    </vehicle>
    <vehicle id="bus8" type="bus_bus" depart="925.74" departLane="best" departSpeed="max">
        <route edges="1296098178 1296098177 1287697069 1252226323 421085682 -333292211#2"/>
    </vehicle>
    <vehicle id="bus9" type="bus_bus" depart="1041.46" departLane="best" departSpeed="max">
        <route edges="587063904 1252226326 1252226316 587063887#0 -587063887#6 1252226318#0"/>
    </vehicle>
    <vehicle id="bus10" type="bus_bus" depart="1157.17" departLane="best" departSpeed="max">
        <route edges="587063904 1252226326"/>
    </vehicle>
    <vehicle id="bus11" type="bus_bus" depart="1272.89" departLane="best" departSpeed="max">
        <route edges="-587063887#6 1252226318#0 587063900#0 -1252226314 -1293084433 -1296098178"/>
    </vehicle>
    <vehicle id="bus12" type="bus_bus" depart="1388.61" departLane="best" departSpeed="max">
        <route edges="587063904 1252226326 587063900#0 -1252226314 -1293084433 -1296098178"/>
    </vehicle>
    <vehicle id="bus13" type="bus_bus" depart="1504.33" departLane="best" departSpeed="max">
        <route edges="587063904 1252226326 1252226316 587063887#0"/>
    </vehicle>
    <vehicle id="bus14" type="bus_bus" depart="1620.04" departLane="best">
        <route edges="1296098177 1287697069 1252226323 1252226316 587063887#0"/>
    </vehicle>
    <vehicle id="bus15" type="bus_bus" depart="1735.76" departLane="best" departSpeed="max">
        <route edges="1296098178 1296098177 1287697069 1252226323 1252226316 587063887#0"/>
    </vehicle>
    <vehicle id="bus16" type="bus_bus" depart="1851.48" departLane="best" departSpeed="max">
        <route edges="1296098178 1296098177 1287697069 1252226323 1252226316 587063887#0"/>
    </vehicle>
    <vehicle id="bus17" type="bus_bus" depart="1967.20" departLane="best">
        <route edges="1252226318#0 421085682 -333292211#2"/>
    </vehicle>
    <vehicle id="bus18" type="bus_bus" depart="2082.91" departLane="best" departSpeed="max">
        <route edges="-587063887#6 1252226318#0 587063900#0 -1252226314 -1293084433 -1296098178"/>
    </vehicle>
    <vehicle id="bus19" type="bus_bus" depart="2198.63" departLane="best" departSpeed="max">
        <route edges="587063904 1252226326 587063900#0 -1252226314 -1293084433 -1296098178 1296098178 1296098177"/>
    </vehicle>
    <vehicle id="bus20" type="bus_bus" depart="2314.35" departLane="best" departSpeed="max">
        <route edges="587063904 1252226326 587063900#0 -1252226314 -1293084433 -1296098178 1296098178 1296098177 1287697069"/>
    </vehicle>
    <vehicle id="bus21" type="bus_bus" depart="2430.06" departLane="best" departSpeed="max">
        <route edges="587063904 1252226326 587063900#0 -1252226314 -1293084433 -1296098178"/>
    </vehicle>
    <vehicle id="bus22" type="bus_bus" depart="2545.78" departLane="best" departSpeed="max">
        <route edges="-587063887#6 1252226318#0 587063900#0 -1252226314 -1293084433 -1296098178"/>
    </vehicle>
    <vehicle id="bus23" type="bus_bus" depart="2661.50" departLane="best" departSpeed="max">
        <route edges="-587063887#6 1252226318#0 421085682 -333292211#2"/>
    </vehicle>
    <vehicle id="bus24" type="bus_bus" depart="2777.22" departLane="best">
        <route edges="1296098177 1287697069 1252226323 1252226316 587063887#0"/>
    </vehicle>
    <vehicle id="bus25" type="bus_bus" depart="2892.93" departLane="best" departSpeed="max">
        <route edges="587063904 1252226326 1252226316 587063887#0"/>
    </vehicle>
    <vehicle id="bus26" type="bus_bus" depart="3008.65" departLane="best" departSpeed="max">
        <route edges="-587063887#6 1252226318#0 587063900#0 -1252226314"/>
    </vehicle>
    <vehicle id="bus27" type="bus_bus" depart="3124.37" departLane="best">
        <route edges="1252226323 421085682 -333292211#2"/>
    </vehicle>
    <vehicle id="bus28" type="bus_bus" depart="3240.09" departLane="best" departSpeed="max">
        <route edges="-587063887#6 1252226318#0 587063900#0 -1252226314 -1293084433 -1296098178"/>
    </vehicle>
    <vehicle id="bus29" type="bus_bus" depart="3355.80" departLane="best" departSpeed="max">
        <route edges="-587063887#6 1252226318#0 587063900#0 -1252226314 -1293084433"/>
    </vehicle>
    <vehicle id="bus30" type="bus_bus" depart="3471.52" departLane="best" departSpeed="max">
        <route edges="-587063887#6 1252226318#0 587063900#0 -1252226314 -1293084433 -1296098178 1296098178 1296098177"/>
    </vehicle>
    <vehicle id="bus31" type="bus_bus" depart="3587.24" departLane="best" departSpeed="max">
        <route edges="-587063887#6 1252226318#0 587063900#0 -1252226314 -1293084433 -1296098178"/>
    </vehicle>
</routes>
