<?xml version="1.0" encoding="UTF-8"?>

<!-- generated on 2025-09-17 21:40:07.920794 by randomTrips.py v1_24_0+0000-b72eb3fabc8
<configuration>
    <net-file value="osm.net.xml.gz"/>
    <output-trip-file value="osm.passenger.trips.xml"/>
    <route-file value="osm.passenger.rou.xml"/>
    <prefix value="veh"/>
    <trip-attributes value="departLane=&quot;best&quot;"/>
    <fringe-start-attributes value="departSpeed=&quot;max&quot;"/>
    <vehicle-class value="passenger"/>
    <lanes value="True"/>
    <fringe-factor value="5"/>
    <allow-fringe.min-length value="1000.0"/>
    <edge-permission value="passenger"/>
    <via-edge-types value="highway.motorway,highway.motorway_link,highway.trunk_link,highway.primary_link,highway.secondary_link,highway.tertiary_link"/>
    <seed value="44"/>
    <min-distance value="300.0"/>
    <min-distance.fringe value="10.0"/>
    <remove-loops value="True"/>
    <insertion-density value="12.0"/>
</configuration>
-->

<routes xmlns:xsi="http://www.w3.org/2001/XMLSchema-instance" xsi:noNamespaceSchemaLocation="http://sumo.dlr.de/xsd/routes_file.xsd">
    <vType id="veh_passenger" vClass="passenger"/>
    <trip id="veh0" depart="0.00" from="587063904" to="-1293084433" departLane="best" type="veh_passenger" departSpeed="max"/>
    <trip id="veh1" depart="87.42" from="-587063887#5" to="-1252226314" departLane="best" type="veh_passenger" departSpeed="max"/>
    <trip id="veh2" depart="174.83" from="-587063887#5" to="-1252226314" departLane="best" type="veh_passenger" departSpeed="max"/>
    <trip id="veh3" depart="262.25" from="1296098177" to="-333292211#2" departLane="best" type="veh_passenger" departSpeed="max"/>
    <trip id="veh4" depart="349.67" from="-587063887#5" to="-1293084433" departLane="best" type="veh_passenger" departSpeed="max"/>
    <trip id="veh5" depart="437.08" from="587063904" to="-1293084433" departLane="best" type="veh_passenger" departSpeed="max"/>
    <trip id="veh6" depart="524.50" from="1296098177" to="587063900#0" departLane="best" type="veh_passenger" departSpeed="max"/>
    <trip id="veh7" depart="611.92" from="1287697069" to="587063887#0" departLane="best" type="veh_passenger"/>
    <trip id="veh8" depart="699.33" from="-587063887#5" to="-333292211#2" departLane="best" type="veh_passenger" departSpeed="max"/>
    <trip id="veh9" depart="786.75" from="-587063887#5" to="-1293084433" departLane="best" type="veh_passenger" departSpeed="max"/>
    <trip id="veh10" depart="874.17" from="1296098177" to="587063887#0" departLane="best" type="veh_passenger" departSpeed="max"/>
    <trip id="veh11" depart="961.58" from="1252226326" to="-1293084433" departLane="best" type="veh_passenger"/>
    <trip id="veh12" depart="1049.00" from="1296098177" to="-333292211#2" departLane="best" type="veh_passenger" departSpeed="max"/>
    <trip id="veh13" depart="1136.42" from="1296098177" to="1252226316" departLane="best" type="veh_passenger" departSpeed="max"/>
    <trip id="veh14" depart="1223.83" from="-587063887#5" to="-333292211#2" departLane="best" type="veh_passenger" departSpeed="max"/>
    <trip id="veh15" depart="1311.25" from="587063904" to="-1293084433" departLane="best" type="veh_passenger" departSpeed="max"/>
    <trip id="veh16" depart="1398.67" from="-587063887#5" to="-1293084433" departLane="best" type="veh_passenger" departSpeed="max"/>
    <trip id="veh17" depart="1486.08" from="1296098177" to="1252226316" departLane="best" type="veh_passenger" departSpeed="max"/>
    <trip id="veh18" depart="1573.50" from="-587063887#5" to="-1293084433" departLane="best" type="veh_passenger" departSpeed="max"/>
    <trip id="veh19" depart="1660.92" from="1252226326" to="-1293084433" departLane="best" type="veh_passenger"/>
    <trip id="veh20" depart="1748.33" from="587063904" to="587063887#0" departLane="best" type="veh_passenger" departSpeed="max"/>
    <trip id="veh21" depart="1835.75" from="1252226316" to="-1293084433" departLane="best" type="veh_passenger"/>
    <trip id="veh22" depart="1923.17" from="1296098177" to="587063887#0" departLane="best" type="veh_passenger" departSpeed="max"/>
    <trip id="veh23" depart="2010.58" from="1296098177" to="1252226316" departLane="best" type="veh_passenger" departSpeed="max"/>
    <trip id="veh24" depart="2098.00" from="1287697069" to="-333292211#2" departLane="best" type="veh_passenger"/>
    <trip id="veh25" depart="2185.42" from="1252226318#0" to="-333292211#2" departLane="best" type="veh_passenger"/>
    <trip id="veh26" depart="2272.83" from="1296098177" to="587063887#0" departLane="best" type="veh_passenger" departSpeed="max"/>
    <trip id="veh27" depart="2360.25" from="-587063887#5" to="-333292211#2" departLane="best" type="veh_passenger" departSpeed="max"/>
    <trip id="veh28" depart="2447.67" from="-587063887#5" to="-333292211#2" departLane="best" type="veh_passenger" departSpeed="max"/>
    <trip id="veh29" depart="2535.08" from="1296098177" to="587063887#0" departLane="best" type="veh_passenger" departSpeed="max"/>
    <trip id="veh30" depart="2622.50" from="1296098177" to="587063887#0" departLane="best" type="veh_passenger" departSpeed="max"/>
    <trip id="veh31" depart="2709.92" from="1296098177" to="1252226316" departLane="best" type="veh_passenger" departSpeed="max"/>
    <trip id="veh32" depart="2797.33" from="1252226318#0" to="-333292211#2" departLane="best" type="veh_passenger"/>
    <trip id="veh33" depart="2884.75" from="1287697069" to="587063887#0" departLane="best" type="veh_passenger"/>
    <trip id="veh34" depart="2972.17" from="1296098177" to="-333292211#2" departLane="best" type="veh_passenger" departSpeed="max"/>
    <trip id="veh35" depart="3059.58" from="-587063887#5" to="-1293084433" departLane="best" type="veh_passenger" departSpeed="max"/>
    <trip id="veh36" depart="3147.00" from="-587063887#5" to="-1252226314" departLane="best" type="veh_passenger" departSpeed="max"/>
    <trip id="veh37" depart="3234.42" from="-587063887#5" to="-333292211#2" departLane="best" type="veh_passenger" departSpeed="max"/>
    <trip id="veh38" depart="3321.83" from="1296098177" to="1252226323" departLane="best" type="veh_passenger" departSpeed="max"/>
    <trip id="veh39" depart="3409.25" from="1252226318#0" to="-1293084433" departLane="best" type="veh_passenger"/>
    <trip id="veh40" depart="3496.67" from="1296098177" to="1287697069" departLane="best" type="veh_passenger" departSpeed="max"/>
    <trip id="veh41" depart="3584.08" from="587063904" to="-1252226314" departLane="best" type="veh_passenger" departSpeed="max"/>
</routes>
