<?xml version='1.0' encoding='utf-8'?>
<routes xmlns:xsi="http://www.w3.org/2001/XMLSchema-instance" xsi:noNamespaceSchemaLocation="http://sumo.dlr.de/xsd/routes_file.xsd"><vType id="veh_passenger" vClass="passenger" guiShape="passenger" color="128,128,128" maxSpeed="55.56" accel="2.6" decel="4.5" />
    <trip id="passenger_799077_0" depart="1660.92" from="1252226326" to="-1293084433" departLane="best" type="veh_passenger" /><trip id="passenger_799077_1" depart="2185.42" from="1252226318#0" to="-333292211#2" departLane="best" type="veh_passenger" /><trip id="passenger_799077_2" depart="3147.00" from="-587063887#5" to="-1252226314" departLane="best" type="veh_passenger" departSpeed="max" /><trip id="passenger_799077_3" depart="437.08" from="587063904" to="-1293084433" departLane="best" type="veh_passenger" departSpeed="max" /><trip id="passenger_799077_4" depart="524.50" from="1296098177" to="587063900#0" departLane="best" type="veh_passenger" departSpeed="max" /><trip id="passenger_799077_5" depart="786.75" from="-587063887#5" to="-1293084433" departLane="best" type="veh_passenger" departSpeed="max" /><trip id="passenger_799077_6" depart="2272.83" from="1296098177" to="587063887#0" departLane="best" type="veh_passenger" departSpeed="max" /><trip id="passenger_799077_7" depart="1923.17" from="1296098177" to="587063887#0" departLane="best" type="veh_passenger" departSpeed="max" /><trip id="passenger_799077_8" depart="961.58" from="1252226326" to="-1293084433" departLane="best" type="veh_passenger" /><trip id="passenger_799077_9" depart="699.33" from="-587063887#5" to="-333292211#2" departLane="best" type="veh_passenger" departSpeed="max" /><trip id="passenger_799077_10" depart="1136.42" from="1296098177" to="1252226316" departLane="best" type="veh_passenger" departSpeed="max" /><trip id="passenger_799077_11" depart="1049.00" from="1296098177" to="-333292211#2" departLane="best" type="veh_passenger" departSpeed="max" /><trip id="passenger_799077_12" depart="174.83" from="-587063887#5" to="-1252226314" departLane="best" type="veh_passenger" departSpeed="max" /><trip id="passenger_799077_13" depart="1311.25" from="587063904" to="-1293084433" departLane="best" type="veh_passenger" departSpeed="max" /><trip id="passenger_799077_14" depart="3234.42" from="-587063887#5" to="-333292211#2" departLane="best" type="veh_passenger" departSpeed="max" /><trip id="passenger_799077_15" depart="1835.75" from="1252226316" to="-1293084433" departLane="best" type="veh_passenger" /><trip id="passenger_799077_16" depart="2797.33" from="1252226318#0" to="-333292211#2" departLane="best" type="veh_passenger" /><trip id="passenger_799077_17" depart="2709.92" from="1296098177" to="1252226316" departLane="best" type="veh_passenger" departSpeed="max" /><trip id="passenger_799077_18" depart="3409.25" from="1252226318#0" to="-1293084433" departLane="best" type="veh_passenger" /><trip id="passenger_799077_19" depart="1398.67" from="-587063887#5" to="-1293084433" departLane="best" type="veh_passenger" departSpeed="max" /><trip id="passenger_799077_20" depart="87.42" from="-587063887#5" to="-1252226314" departLane="best" type="veh_passenger" departSpeed="max" /><trip id="passenger_799077_21" depart="3496.67" from="1296098177" to="1287697069" departLane="best" type="veh_passenger" departSpeed="max" /><trip id="passenger_799077_22" depart="3059.58" from="-587063887#5" to="-1293084433" departLane="best" type="veh_passenger" departSpeed="max" /><trip id="passenger_799077_23" depart="1748.33" from="587063904" to="587063887#0" departLane="best" type="veh_passenger" departSpeed="max" /><trip id="passenger_799077_24" depart="2884.75" from="1287697069" to="587063887#0" departLane="best" type="veh_passenger" /><trip id="passenger_799077_25" depart="1573.50" from="-587063887#5" to="-1293084433" departLane="best" type="veh_passenger" departSpeed="max" /><trip id="passenger_799077_26" depart="2535.08" from="1296098177" to="587063887#0" departLane="best" type="veh_passenger" departSpeed="max" /><trip id="passenger_799077_27" depart="349.67" from="-587063887#5" to="-1293084433" departLane="best" type="veh_passenger" departSpeed="max" /><trip id="passenger_799077_28" depart="2010.58" from="1296098177" to="1252226316" departLane="best" type="veh_passenger" departSpeed="max" /><trip id="passenger_799077_29" depart="2622.50" from="1296098177" to="587063887#0" departLane="best" type="veh_passenger" departSpeed="max" /><trip id="passenger_799077_30" depart="2972.17" from="1296098177" to="-333292211#2" departLane="best" type="veh_passenger" departSpeed="max" /><trip id="passenger_799077_31" depart="3584.08" from="587063904" to="-1252226314" departLane="best" type="veh_passenger" departSpeed="max" /><trip id="passenger_799077_32" depart="1486.08" from="1296098177" to="1252226316" departLane="best" type="veh_passenger" departSpeed="max" /><trip id="passenger_799077_enh_33" depart="0.00" from="1252226323" to="421085682" type="veh_passenger" color="0,255,255" departLane="best" departSpeed="max" departPos="random" speedFactor="1.12" /><trip id="passenger_799077_enh_34" depart="0.00" from="1296098177" to="1287697069" type="veh_passenger" color="255,165,0" departLane="best" departSpeed="max" departPos="random" speedFactor="1.09" /><trip id="passenger_799077_enh_35" depart="0.00" from="587063904" to="-1293084433" type="veh_passenger" color="139,69,19" departLane="best" departSpeed="max" departPos="random" speedFactor="1.02" /><trip id="passenger_799077_enh_36" depart="1.20" from="587063904" to="1252226318#0" type="veh_passenger" color="255,20,147" departLane="best" departSpeed="max" departPos="random" speedFactor="0.89" /><trip id="passenger_799077_enh_37" depart="183.33" from="587063904" to="1252226318#0" type="veh_passenger" color="192,192,192" departLane="best" departSpeed="max" departPos="random" speedFactor="0.9" /><trip id="passenger_799077_enh_38" depart="238.27" from="1296098177" to="1252226316" type="veh_passenger" color="128,0,128" departLane="best" departSpeed="max" departPos="random" speedFactor="0.97" /><trip id="passenger_799077_enh_39" depart="259.22" from="587063904" to="587063900#0" type="veh_passenger" color="0,255,255" departLane="best" departSpeed="max" departPos="random" speedFactor="1.04" /><trip id="passenger_799077_enh_40" depart="346.65" from="-587063887#5" to="587063900#0" type="veh_passenger" color="255,0,0" departLane="best" departSpeed="max" departPos="random" speedFactor="0.9" /><trip id="passenger_799077_enh_41" depart="455.82" from="1252226318#0" to="587063900#0" type="veh_passenger" color="0,0,255" departLane="best" departSpeed="max" departPos="random" speedFactor="0.86" /><trip id="passenger_799077_enh_42" depart="458.84" from="1287697069" to="-333292211#2" type="veh_passenger" color="128,0,128" departLane="best" departSpeed="max" departPos="random" speedFactor="1.01" /><trip id="passenger_799077_enh_43" depart="514.39" from="1252226318#0" to="-333292211#2" type="veh_passenger" color="50,205,50" departLane="best" departSpeed="max" departPos="random" speedFactor="0.89" /><trip id="passenger_799077_enh_44" depart="518.78" from="1252226326" to="1252226326" type="veh_passenger" color="50,205,50" departLane="best" departSpeed="max" departPos="random" speedFactor="1.0" /><trip id="passenger_799077_enh_45" depart="712.37" from="1252226316" to="-333292211#2" type="veh_passenger" color="255,165,0" departLane="best" departSpeed="max" departPos="random" speedFactor="0.87" /><trip id="passenger_799077_enh_46" depart="714.29" from="1252226316" to="-1252226314" type="veh_passenger" color="128,0,128" departLane="best" departSpeed="max" departPos="random" speedFactor="1.04" /><trip id="passenger_799077_enh_47" depart="782.85" from="1252226318#0" to="421085682" type="veh_passenger" color="128,128,128" departLane="best" departSpeed="max" departPos="random" speedFactor="0.87" /><trip id="passenger_799077_enh_48" depart="886.98" from="1287697069" to="421085682" type="veh_passenger" color="139,69,19" departLane="best" departSpeed="max" departPos="random" speedFactor="0.88" /><trip id="passenger_799077_enh_49" depart="887.23" from="1296098177" to="587063887#0" type="veh_passenger" color="0,0,255" departLane="best" departSpeed="max" departPos="random" speedFactor="1.08" /><trip id="passenger_799077_enh_50" depart="941.87" from="1296098177" to="1252226318#0" type="veh_passenger" color="0,128,0" departLane="best" departSpeed="max" departPos="random" speedFactor="0.95" /><trip id="passenger_799077_enh_51" depart="1054.64" from="-587063887#5" to="421085682" type="veh_passenger" color="0,0,0" departLane="best" departSpeed="max" departPos="random" speedFactor="1.11" /><trip id="passenger_799077_enh_52" depart="1055.22" from="587063904" to="1252226326" type="veh_passenger" color="0,0,255" departLane="best" departSpeed="max" departPos="random" speedFactor="0.9" /><trip id="passenger_799077_enh_53" depart="1185.31" from="1252226326" to="1252226316" type="veh_passenger" color="139,69,19" departLane="best" departSpeed="max" departPos="random" speedFactor="1.06" /><trip id="passenger_799077_enh_54" depart="1218.76" from="421085682" to="-333292211#2" type="veh_passenger" color="255,255,255" departLane="best" departSpeed="max" departPos="random" speedFactor="1.11" /><trip id="passenger_799077_enh_55" depart="1312.96" from="-587063887#5" to="-1293084433" type="veh_passenger" color="139,69,19" departLane="best" departSpeed="max" departPos="random" speedFactor="0.86" /><trip id="passenger_799077_enh_56" depart="1349.40" from="421085682" to="-1293084433" type="veh_passenger" color="139,69,19" departLane="best" departSpeed="max" departPos="random" speedFactor="0.89" /><trip id="passenger_799077_enh_57" depart="1383.39" from="-587063887#5" to="-1293084433" type="veh_passenger" color="192,192,192" departLane="best" departSpeed="max" departPos="random" speedFactor="0.88" /><trip id="passenger_799077_enh_58" depart="1428.00" from="1287697069" to="1252226316" type="veh_passenger" color="139,69,19" departLane="best" departSpeed="max" departPos="random" speedFactor="0.87" /><trip id="passenger_799077_enh_59" depart="1582.19" from="1252226326" to="-1252226314" type="veh_passenger" color="255,255,255" departLane="best" departSpeed="max" departPos="random" speedFactor="1.09" /><trip id="passenger_799077_enh_60" depart="1583.70" from="-587063887#5" to="1252226326" type="veh_passenger" color="0,0,0" departLane="best" departSpeed="max" departPos="random" speedFactor="0.99" /><trip id="passenger_799077_enh_61" depart="1647.47" from="1252226318#0" to="-333292211#2" type="veh_passenger" color="255,165,0" departLane="best" departSpeed="max" departPos="random" speedFactor="0.86" /><trip id="passenger_799077_enh_62" depart="1758.23" from="-587063887#5" to="-1293084433" type="veh_passenger" color="255,0,0" departLane="best" departSpeed="max" departPos="random" speedFactor="0.91" /><trip id="passenger_799077_enh_63" depart="1801.28" from="587063904" to="1252226326" type="veh_passenger" color="139,69,19" departLane="best" departSpeed="max" departPos="random" speedFactor="1.02" /><trip id="passenger_799077_enh_64" depart="1844.78" from="-587063887#5" to="421085682" type="veh_passenger" color="128,128,128" departLane="best" departSpeed="max" departPos="random" speedFactor="1.12" /><trip id="passenger_799077_enh_65" depart="1897.94" from="421085682" to="587063887#0" type="veh_passenger" color="139,69,19" departLane="best" departSpeed="max" departPos="random" speedFactor="1.11" /><trip id="passenger_799077_enh_66" depart="1929.02" from="1296098177" to="1252226323" type="veh_passenger" color="128,0,128" departLane="best" departSpeed="max" departPos="random" speedFactor="1.09" /><trip id="passenger_799077_enh_67" depart="2103.76" from="1252226323" to="-1293084433" type="veh_passenger" color="255,20,147" departLane="best" departSpeed="max" departPos="random" speedFactor="1.03" /><trip id="passenger_799077_enh_68" depart="2112.02" from="587063904" to="-1293084433" type="veh_passenger" color="255,255,0" departLane="best" departSpeed="max" departPos="random" speedFactor="1.09" /><trip id="passenger_799077_enh_69" depart="2136.42" from="421085682" to="-1252226314" type="veh_passenger" color="0,0,0" departLane="best" departSpeed="max" departPos="random" speedFactor="1.12" /><trip id="passenger_799077_enh_70" depart="2250.36" from="-1252226314" to="-1293084433" type="veh_passenger" color="50,205,50" departLane="best" departSpeed="max" departPos="random" speedFactor="1.14" /><trip id="passenger_799077_enh_71" depart="2275.43" from="1296098177" to="1252226326" type="veh_passenger" color="192,192,192" departLane="best" departSpeed="max" departPos="random" speedFactor="0.96" /><trip id="passenger_799077_enh_72" depart="2379.02" from="-587063887#5" to="587063900#0" type="veh_passenger" color="128,128,128" departLane="best" departSpeed="max" departPos="random" speedFactor="1.06" /><trip id="passenger_799077_enh_73" depart="2388.37" from="1296098177" to="1252226323" type="veh_passenger" color="0,255,255" departLane="best" departSpeed="max" departPos="random" speedFactor="1.09" /><trip id="passenger_799077_enh_74" depart="2458.40" from="587063900#0" to="-1293084433" type="veh_passenger" color="255,20,147" departLane="best" departSpeed="max" departPos="random" speedFactor="1.1" /><trip id="passenger_799077_enh_75" depart="2598.54" from="1252226318#0" to="-1293084433" type="veh_passenger" color="255,255,255" departLane="best" departSpeed="max" departPos="random" speedFactor="0.96" /><trip id="passenger_799077_enh_76" depart="2622.58" from="-587063887#5" to="-333292211#2" type="veh_passenger" color="0,0,0" departLane="best" departSpeed="max" departPos="random" speedFactor="1.05" /><trip id="passenger_799077_enh_77" depart="2664.26" from="1296098177" to="421085682" type="veh_passenger" color="128,128,128" departLane="best" departSpeed="max" departPos="random" speedFactor="0.97" /><trip id="passenger_799077_enh_78" depart="2677.34" from="1287697069" to="421085682" type="veh_passenger" color="255,165,0" departLane="best" departSpeed="max" departPos="random" speedFactor="1.05" /><trip id="passenger_799077_enh_79" depart="2797.79" from="1296098177" to="1252226316" type="veh_passenger" color="50,205,50" departLane="best" departSpeed="max" departPos="random" speedFactor="1.03" /><trip id="passenger_799077_enh_80" depart="2832.01" from="-587063887#5" to="-333292211#2" type="veh_passenger" color="0,128,0" departLane="best" departSpeed="max" departPos="random" speedFactor="0.99" /><trip id="passenger_799077_enh_81" depart="2915.66" from="1252226326" to="-1252226314" type="veh_passenger" color="50,205,50" departLane="best" departSpeed="max" departPos="random" speedFactor="1.02" /><trip id="passenger_799077_enh_82" depart="2985.26" from="1296098177" to="1252226326" type="veh_passenger" color="255,255,255" departLane="best" departSpeed="max" departPos="random" speedFactor="0.97" /><trip id="passenger_799077_enh_83" depart="3073.70" from="1296098177" to="-333292211#2" type="veh_passenger" color="128,0,128" departLane="best" departSpeed="max" departPos="random" speedFactor="0.97" /><trip id="passenger_799077_enh_84" depart="3121.93" from="587063904" to="-1293084433" type="veh_passenger" color="0,0,255" departLane="best" departSpeed="max" departPos="random" speedFactor="0.96" /><trip id="passenger_799077_enh_85" depart="3144.62" from="-587063887#5" to="-333292211#2" type="veh_passenger" color="255,165,0" departLane="best" departSpeed="max" departPos="random" speedFactor="0.97" /><trip id="passenger_799077_enh_86" depart="3173.49" from="1252226316" to="-1293084433" type="veh_passenger" color="255,20,147" departLane="best" departSpeed="max" departPos="random" speedFactor="0.98" /><trip id="passenger_799077_enh_87" depart="3312.68" from="1252226316" to="-1293084433" type="veh_passenger" color="139,69,19" departLane="best" departSpeed="max" departPos="random" speedFactor="0.95" /><trip id="passenger_799077_enh_88" depart="3331.76" from="-587063887#5" to="-333292211#2" type="veh_passenger" color="255,255,255" departLane="best" departSpeed="max" departPos="random" speedFactor="1.14" /><trip id="passenger_799077_enh_89" depart="3463.58" from="1296098177" to="587063887#0" type="veh_passenger" color="255,255,255" departLane="best" departSpeed="max" departPos="random" speedFactor="0.89" /><trip id="passenger_799077_enh_90" depart="3508.28" from="587063904" to="587063887#0" type="veh_passenger" color="128,128,128" departLane="best" departSpeed="max" departPos="random" speedFactor="0.88" /><trip id="passenger_799077_enh_91" depart="3564.31" from="1296098177" to="-333292211#2" type="veh_passenger" color="0,128,0" departLane="best" departSpeed="max" departPos="random" speedFactor="1.0" /><trip id="passenger_799077_enh_92" depart="3564.84" from="587063904" to="587063887#0" type="veh_passenger" color="0,0,255" departLane="best" departSpeed="max" departPos="random" speedFactor="1.05" /></routes>