<?xml version='1.0' encoding='utf-8'?>
<routes xmlns:xsi="http://www.w3.org/2001/XMLSchema-instance" xsi:noNamespaceSchemaLocation="http://sumo.dlr.de/xsd/routes_file.xsd"><vType id="truck_truck" vClass="truck" guiShape="truck" color="255,255,255" maxSpeed="25.0" length="10.0" />
    <trip id="truck_803915_0" depart="2098.00" from="-587063887#5" to="-1293084433" departLane="best" type="truck_truck" departSpeed="max" /><trip id="truck_803915_1" depart="917.87" from="587063904" to="587063887#0" departLane="best" type="truck_truck" departSpeed="max" /><trip id="truck_803915_2" depart="1573.50" from="1296098177" to="587063887#0" departLane="best" type="truck_truck" departSpeed="max" /><trip id="truck_803915_3" depart="1704.62" from="1296098177" to="-333292211#2" departLane="best" type="truck_truck" departSpeed="max" /><trip id="truck_803915_4" depart="393.37" from="-587063887#5" to="-1293084433" departLane="best" type="truck_truck" departSpeed="max" /><trip id="truck_803915_5" depart="655.62" from="-587063887#5" to="-333292211#2" departLane="best" type="truck_truck" departSpeed="max" /><trip id="truck_803915_6" depart="2884.75" from="-587063887#5" to="-1293084433" departLane="best" type="truck_truck" departSpeed="max" /><trip id="truck_803915_7" depart="1311.25" from="-587063887#5" to="-1293084433" departLane="best" type="truck_truck" departSpeed="max" /><trip id="truck_803915_8" depart="0.00" from="1296098177" to="587063887#0" departLane="best" type="truck_truck" departSpeed="max" /><trip id="truck_803915_9" depart="262.25" from="587063904" to="-1293084433" departLane="best" type="truck_truck" departSpeed="max" /><trip id="truck_803915_10" depart="524.50" from="-587063887#5" to="-333292211#2" departLane="best" type="truck_truck" departSpeed="max" /><trip id="truck_803915_11" depart="3015.87" from="587063904" to="587063887#0" departLane="best" type="truck_truck" departSpeed="max" /><trip id="truck_803915_12" depart="1835.75" from="-587063887#5" to="-333292211#2" departLane="best" type="truck_truck" departSpeed="max" /><trip id="truck_803915_13" depart="3278.12" from="587063904" to="587063887#0" departLane="best" type="truck_truck" departSpeed="max" /><trip id="truck_803915_14" depart="1966.87" from="1296098177" to="587063887#0" departLane="best" type="truck_truck" departSpeed="max" /><trip id="truck_803915_15" depart="3409.25" from="-587063887#5" to="-1293084433" departLane="best" type="truck_truck" departSpeed="max" /><trip id="truck_803915_16" depart="2622.50" from="1296098177" to="587063887#0" departLane="best" type="truck_truck" departSpeed="max" /><trip id="truck_803915_17" depart="2360.25" from="587063904" to="587063887#0" departLane="best" type="truck_truck" departSpeed="max" /><trip id="truck_803915_18" depart="2229.12" from="587063904" to="587063887#0" departLane="best" type="truck_truck" departSpeed="max" /><trip id="truck_803915_19" depart="3147.00" from="587063904" to="587063887#0" departLane="best" type="truck_truck" departSpeed="max" /><trip id="truck_803915_20" depart="1442.37" from="587063904" to="-1293084433" departLane="best" type="truck_truck" departSpeed="max" /><trip id="truck_803915_21" depart="131.12" from="587063904" to="-1293084433" departLane="best" type="truck_truck" departSpeed="max" /><trip id="truck_803915_enh_22" depart="3.85" from="-587063887#5" to="421085682" type="truck_truck" color="255,255,255" departLane="best" departSpeed="max" departPos="random" speedFactor="0.86" /><trip id="truck_803915_enh_23" depart="8.46" from="1296098177" to="1252226326" type="truck_truck" color="0,128,0" departLane="best" departSpeed="max" departPos="random" speedFactor="0.85" /><trip id="truck_803915_enh_24" depart="12.06" from="587063900#0" to="-1293084433" type="truck_truck" color="0,0,0" departLane="best" departSpeed="max" departPos="random" speedFactor="1.0" /><trip id="truck_803915_enh_25" depart="176.95" from="1252226318#0" to="-1293084433" type="truck_truck" color="128,128,128" departLane="best" departSpeed="max" departPos="random" speedFactor="1.07" /><trip id="truck_803915_enh_26" depart="243.12" from="1296098177" to="-333292211#2" type="truck_truck" color="255,255,255" departLane="best" departSpeed="max" departPos="random" speedFactor="1.02" /><trip id="truck_803915_enh_27" depart="254.80" from="1252226316" to="-1293084433" type="truck_truck" color="0,0,255" departLane="best" departSpeed="max" departPos="random" speedFactor="1.14" /><trip id="truck_803915_enh_28" depart="330.99" from="587063904" to="-1293084433" type="truck_truck" color="0,0,0" departLane="best" departSpeed="max" departPos="random" speedFactor="0.98" /><trip id="truck_803915_enh_29" depart="453.70" from="1287697069" to="587063887#0" type="truck_truck" color="0,128,0" departLane="best" departSpeed="max" departPos="random" speedFactor="0.88" /><trip id="truck_803915_enh_30" depart="512.00" from="587063904" to="-1293084433" type="truck_truck" color="255,255,0" departLane="best" departSpeed="max" departPos="random" speedFactor="0.92" /><trip id="truck_803915_enh_31" depart="523.77" from="-587063887#5" to="-1293084433" type="truck_truck" color="0,128,0" departLane="best" departSpeed="max" departPos="random" speedFactor="1.11" /><trip id="truck_803915_enh_32" depart="691.10" from="1252226316" to="-1293084433" type="truck_truck" color="0,0,255" departLane="best" departSpeed="max" departPos="random" speedFactor="1.11" /><trip id="truck_803915_enh_33" depart="700.66" from="-587063887#5" to="-1293084433" type="truck_truck" color="0,0,0" departLane="best" departSpeed="max" departPos="random" speedFactor="1.06" /><trip id="truck_803915_enh_34" depart="786.74" from="-587063887#5" to="-333292211#2" type="truck_truck" color="255,255,255" departLane="best" departSpeed="max" departPos="random" speedFactor="1.01" /><trip id="truck_803915_enh_35" depart="865.00" from="-587063887#5" to="-1293084433" type="truck_truck" color="0,128,0" departLane="best" departSpeed="max" departPos="random" speedFactor="1.04" /><trip id="truck_803915_enh_36" depart="928.07" from="1296098177" to="587063887#0" type="truck_truck" color="255,0,0" departLane="best" departSpeed="max" departPos="random" speedFactor="1.09" /><trip id="truck_803915_enh_37" depart="1023.01" from="1296098177" to="587063887#0" type="truck_truck" color="0,0,255" departLane="best" departSpeed="max" departPos="random" speedFactor="1.03" /><trip id="truck_803915_enh_38" depart="1057.29" from="-587063887#5" to="-1293084433" type="truck_truck" color="255,255,255" departLane="best" departSpeed="max" departPos="random" speedFactor="1.0" /><trip id="truck_803915_enh_39" depart="1160.07" from="1296098177" to="587063887#0" type="truck_truck" color="255,0,0" departLane="best" departSpeed="max" departPos="random" speedFactor="1.07" /><trip id="truck_803915_enh_40" depart="1207.91" from="-587063887#5" to="-1293084433" type="truck_truck" color="0,128,0" departLane="best" departSpeed="max" departPos="random" speedFactor="0.91" /><trip id="truck_803915_enh_41" depart="1322.32" from="-587063887#5" to="-1293084433" type="truck_truck" color="255,0,0" departLane="best" departSpeed="max" departPos="random" speedFactor="0.93" /><trip id="truck_803915_enh_42" depart="1388.94" from="-587063887#5" to="-1293084433" type="truck_truck" color="255,0,0" departLane="best" departSpeed="max" departPos="random" speedFactor="1.15" /><trip id="truck_803915_enh_43" depart="1411.07" from="-587063887#5" to="-1293084433" type="truck_truck" color="0,0,255" departLane="best" departSpeed="max" departPos="random" speedFactor="0.92" /><trip id="truck_803915_enh_44" depart="1556.14" from="-587063887#5" to="-1293084433" type="truck_truck" color="128,128,128" departLane="best" departSpeed="max" departPos="random" speedFactor="0.99" /><trip id="truck_803915_enh_45" depart="1575.89" from="-587063887#5" to="-1293084433" type="truck_truck" color="255,0,0" departLane="best" departSpeed="max" departPos="random" speedFactor="0.96" /><trip id="truck_803915_enh_46" depart="1626.95" from="1296098177" to="587063887#0" type="truck_truck" color="255,255,255" departLane="best" departSpeed="max" departPos="random" speedFactor="1.05" /><trip id="truck_803915_enh_47" depart="1723.82" from="1296098177" to="587063887#0" type="truck_truck" color="255,255,0" departLane="best" departSpeed="max" departPos="random" speedFactor="0.93" /><trip id="truck_803915_enh_48" depart="1836.24" from="-587063887#5" to="-1293084433" type="truck_truck" color="255,255,255" departLane="best" departSpeed="max" departPos="random" speedFactor="1.02" /><trip id="truck_803915_enh_49" depart="1867.25" from="-587063887#5" to="-1293084433" type="truck_truck" color="255,255,255" departLane="best" departSpeed="max" departPos="random" speedFactor="0.9" /><trip id="truck_803915_enh_50" depart="1908.92" from="1296098177" to="587063887#0" type="truck_truck" color="0,128,0" departLane="best" departSpeed="max" departPos="random" speedFactor="1.15" /><trip id="truck_803915_enh_51" depart="2083.21" from="-587063887#5" to="-1293084433" type="truck_truck" color="0,0,0" departLane="best" departSpeed="max" departPos="random" speedFactor="0.99" /><trip id="truck_803915_enh_52" depart="2089.01" from="1296098177" to="587063887#0" type="truck_truck" color="0,128,0" departLane="best" departSpeed="max" departPos="random" speedFactor="0.86" /><trip id="truck_803915_enh_53" depart="2100.04" from="1296098177" to="587063887#0" type="truck_truck" color="128,128,128" departLane="best" departSpeed="max" departPos="random" speedFactor="1.1" /><trip id="truck_803915_enh_54" depart="2249.61" from="1296098177" to="587063887#0" type="truck_truck" color="255,255,0" departLane="best" departSpeed="max" departPos="random" speedFactor="1.14" /><trip id="truck_803915_enh_55" depart="2327.78" from="1296098177" to="587063887#0" type="truck_truck" color="0,128,0" departLane="best" departSpeed="max" departPos="random" speedFactor="0.92" /><trip id="truck_803915_enh_56" depart="2347.50" from="-587063887#5" to="-1293084433" type="truck_truck" color="255,255,255" departLane="best" departSpeed="max" departPos="random" speedFactor="0.96" /><trip id="truck_803915_enh_57" depart="2419.50" from="1296098177" to="587063887#0" via="1252226316" type="truck_truck" color="255,255,0" departLane="best" departSpeed="max" departPos="random" speedFactor="0.89" /><trip id="truck_803915_enh_58" depart="2567.34" from="-587063887#5" to="-1293084433" via="587063900#0" type="truck_truck" color="0,0,255" departLane="best" departSpeed="max" departPos="random" speedFactor="0.88" /><trip id="truck_803915_enh_59" depart="2576.53" from="1296098177" to="587063887#0" via="421085682" type="truck_truck" color="255,255,0" departLane="best" departSpeed="max" departPos="random" speedFactor="0.87" /><trip id="truck_803915_enh_60" depart="2616.68" from="1296098177" to="-1293084433" via="421085682" type="truck_truck" color="255,255,255" departLane="best" departSpeed="max" departPos="random" speedFactor="1.09" /><trip id="truck_803915_enh_61" depart="2767.16" from="1252226323" to="-1293084433" via="1252226318#0" type="truck_truck" color="128,128,128" departLane="best" departSpeed="max" departPos="random" speedFactor="0.99" /><trip id="truck_803915_enh_62" depart="2796.76" from="1287697069" to="587063887#0" via="1252226326" type="truck_truck" color="0,0,255" departLane="best" departSpeed="max" departPos="random" speedFactor="0.86" /><trip id="truck_803915_enh_63" depart="2884.77" from="1296098177" to="-1252226314" via="587063900#0" type="truck_truck" color="128,128,128" departLane="best" departSpeed="max" departPos="random" speedFactor="0.91" /><trip id="truck_803915_enh_64" depart="2923.49" from="-587063887#5" to="-1293084433" via="1252226326" type="truck_truck" color="255,255,0" departLane="best" departSpeed="max" departPos="random" speedFactor="1.02" /><trip id="truck_803915_enh_65" depart="3036.65" from="1287697069" to="587063887#0" via="1252226326" type="truck_truck" color="255,255,255" departLane="best" departSpeed="max" departPos="random" speedFactor="1.12" /><trip id="truck_803915_enh_66" depart="3100.50" from="1296098177" to="-1293084433" via="1252226326" type="truck_truck" color="255,255,0" departLane="best" departSpeed="max" departPos="random" speedFactor="1.11" /><trip id="truck_803915_enh_67" depart="3152.78" from="1287697069" to="-1293084433" via="1252226326" type="truck_truck" color="255,0,0" departLane="best" departSpeed="max" departPos="random" speedFactor="1.09" /><trip id="truck_803915_enh_68" depart="3271.84" from="1296098177" to="587063887#0" via="1252226326" type="truck_truck" color="0,128,0" departLane="best" departSpeed="max" departPos="random" speedFactor="1.03" /><trip id="truck_803915_enh_69" depart="3283.42" from="1296098177" to="587063887#0" via="1252226326" type="truck_truck" color="0,0,0" departLane="best" departSpeed="max" departPos="random" speedFactor="1.09" /><trip id="truck_803915_enh_70" depart="3409.16" from="1296098177" to="-1293084433" via="1252226318#0" type="truck_truck" color="128,128,128" departLane="best" departSpeed="max" departPos="random" speedFactor="1.12" /><trip id="truck_803915_enh_71" depart="3449.75" from="-587063887#5" to="-1293084433" via="1252226326" type="truck_truck" color="0,128,0" departLane="best" departSpeed="max" departPos="random" speedFactor="1.14" /><trip id="truck_803915_enh_72" depart="3524.39" from="1296098177" to="-333292211#2" via="1252226318#0" type="truck_truck" color="0,0,255" departLane="best" departSpeed="max" departPos="random" speedFactor="0.96" /></routes>