<?xml version='1.0' encoding='utf-8'?>
<routes xmlns:xsi="http://www.w3.org/2001/XMLSchema-instance" xsi:noNamespaceSchemaLocation="http://sumo.dlr.de/xsd/routes_file.xsd"><vType id="bus_bus" vClass="bus" guiShape="bus" color="255,255,0" maxSpeed="27.78" length="12.0" />
    <trip id="bus_801715_0" depart="524.50" from="1296098177" to="587063887#0" departLane="best" type="bus_bus" departSpeed="max" /><trip id="bus_801715_1" depart="2098.00" from="587063904" to="587063887#0" departLane="best" type="bus_bus" departSpeed="max" /><trip id="bus_801715_2" depart="786.75" from="1296098177" to="587063887#0" departLane="best" type="bus_bus" departSpeed="max" /><trip id="bus_801715_3" depart="2884.75" from="587063904" to="-1293084433" departLane="best" type="bus_bus" departSpeed="max" /><trip id="bus_801715_4" depart="1573.50" from="1296098177" to="587063887#0" departLane="best" type="bus_bus" departSpeed="max" /><trip id="bus_801715_5" depart="2622.50" from="-587063887#5" to="-333292211#2" departLane="best" type="bus_bus" departSpeed="max" /><trip id="bus_801715_6" depart="0.00" from="587063904" to="587063887#0" departLane="best" type="bus_bus" departSpeed="max" /><trip id="bus_801715_7" depart="2360.25" from="1296098177" to="587063887#0" departLane="best" type="bus_bus" departSpeed="max" /><trip id="bus_801715_8" depart="262.25" from="587063904" to="-1293084433" departLane="best" type="bus_bus" departSpeed="max" /><trip id="bus_801715_9" depart="1049.00" from="-587063887#5" to="-1293084433" departLane="best" type="bus_bus" departSpeed="max" /><trip id="bus_801715_10" depart="1835.75" from="-587063887#5" to="-333292211#2" departLane="best" type="bus_bus" departSpeed="max" /><trip id="bus_801715_enh_11" depart="0.00" from="1252226326" to="-1252226314" type="bus_bus" color="255,165,0" departLane="best" departSpeed="max" departPos="random" speedFactor="1.11" /><trip id="bus_801715_enh_12" depart="0.00" from="1296098177" to="1252226326" type="bus_bus" color="0,128,0" departLane="best" departSpeed="max" departPos="random" speedFactor="1.0" /><trip id="bus_801715_enh_13" depart="0.00" from="1296098177" to="421085682" type="bus_bus" color="255,255,0" departLane="best" departSpeed="max" departPos="random" speedFactor="1.02" /><trip id="bus_801715_enh_14" depart="8.57" from="1252226326" to="587063887#0" type="bus_bus" color="0,0,255" departLane="best" departSpeed="max" departPos="random" speedFactor="0.87" /><trip id="bus_801715_enh_15" depart="163.36" from="1296098177" to="587063900#0" type="bus_bus" color="255,0,0" departLane="best" departSpeed="max" departPos="random" speedFactor="0.97" /><trip id="bus_801715_enh_16" depart="228.93" from="-587063887#5" to="-1293084433" type="bus_bus" color="128,128,128" departLane="best" departSpeed="max" departPos="random" speedFactor="1.1" /><trip id="bus_801715_enh_17" depart="246.26" from="1296098177" to="1252226326" type="bus_bus" color="0,0,255" departLane="best" departSpeed="max" departPos="random" speedFactor="0.99" /><trip id="bus_801715_enh_18" depart="322.58" from="1287697069" to="587063887#0" type="bus_bus" color="255,255,0" departLane="best" departSpeed="max" departPos="random" speedFactor="0.99" /><trip id="bus_801715_enh_19" depart="432.84" from="1287697069" to="421085682" type="bus_bus" color="255,0,0" departLane="best" departSpeed="max" departPos="random" speedFactor="1.01" /><trip id="bus_801715_enh_20" depart="444.96" from="1296098177" to="1252226316" type="bus_bus" color="255,165,0" departLane="best" departSpeed="max" departPos="random" speedFactor="0.89" /><trip id="bus_801715_enh_21" depart="492.87" from="1287697069" to="1252226318#0" type="bus_bus" color="255,165,0" departLane="best" departSpeed="max" departPos="random" speedFactor="1.0" /><trip id="bus_801715_enh_22" depart="512.03" from="1287697069" to="1252226323" type="bus_bus" color="0,128,0" departLane="best" departSpeed="max" departPos="random" speedFactor="0.87" /><trip id="bus_801715_enh_23" depart="676.84" from="1252226326" to="-1252226314" type="bus_bus" color="255,0,0" departLane="best" departSpeed="max" departPos="random" speedFactor="1.04" /><trip id="bus_801715_enh_24" depart="678.37" from="-587063887#5" to="-1252226314" type="bus_bus" color="255,255,0" departLane="best" departSpeed="max" departPos="random" speedFactor="0.87" /><trip id="bus_801715_enh_25" depart="743.98" from="-587063887#5" to="-1252226314" type="bus_bus" color="128,128,128" departLane="best" departSpeed="max" departPos="random" speedFactor="0.88" /><trip id="bus_801715_enh_26" depart="837.84" from="1296098177" to="587063887#0" type="bus_bus" color="255,255,255" departLane="best" departSpeed="max" departPos="random" speedFactor="1.08" /><trip id="bus_801715_enh_27" depart="862.91" from="1296098177" to="1252226323" type="bus_bus" color="255,0,0" departLane="best" departSpeed="max" departPos="random" speedFactor="0.95" /><trip id="bus_801715_enh_28" depart="907.97" from="1296098177" to="1252226323" type="bus_bus" color="0,0,255" departLane="best" departSpeed="max" departPos="random" speedFactor="1.11" /><trip id="bus_801715_enh_29" depart="992.84" from="1296098177" to="1252226326" type="bus_bus" color="255,255,255" departLane="best" departSpeed="max" departPos="random" speedFactor="0.9" /><trip id="bus_801715_enh_30" depart="1002.82" from="1296098177" to="1252226326" type="bus_bus" color="128,128,128" departLane="best" departSpeed="max" departPos="random" speedFactor="1.06" /><trip id="bus_801715_enh_31" depart="1115.89" from="1296098177" to="1252226326" type="bus_bus" color="255,255,0" departLane="best" departSpeed="max" departPos="random" speedFactor="1.11" /><trip id="bus_801715_enh_32" depart="1148.95" from="587063904" to="-1293084433" type="bus_bus" color="128,128,128" departLane="best" departSpeed="max" departPos="random" speedFactor="0.86" /><trip id="bus_801715_enh_33" depart="1248.18" from="1296098177" to="421085682" type="bus_bus" color="128,128,128" departLane="best" departSpeed="max" departPos="random" speedFactor="0.89" /><trip id="bus_801715_enh_34" depart="1287.98" from="587063900#0" to="-1293084433" type="bus_bus" color="0,128,0" departLane="best" departSpeed="max" departPos="random" speedFactor="0.88" /><trip id="bus_801715_enh_35" depart="1339.22" from="1252226318#0" to="-1293084433" type="bus_bus" color="128,128,128" departLane="best" departSpeed="max" departPos="random" speedFactor="0.87" /><trip id="bus_801715_enh_36" depart="1354.80" from="1296098177" to="587063887#0" type="bus_bus" color="255,255,0" departLane="best" departSpeed="max" departPos="random" speedFactor="1.09" /><trip id="bus_801715_enh_37" depart="1499.65" from="1296098177" to="-333292211#2" type="bus_bus" color="0,0,255" departLane="best" departSpeed="max" departPos="random" speedFactor="0.99" /><trip id="bus_801715_enh_38" depart="1505.97" from="1296098177" to="-333292211#2" type="bus_bus" color="0,128,0" departLane="best" departSpeed="max" departPos="random" speedFactor="0.86" /><trip id="bus_801715_enh_39" depart="1581.73" from="1296098177" to="1252226323" type="bus_bus" color="0,0,255" departLane="best" departSpeed="max" departPos="random" speedFactor="0.91" /><trip id="bus_801715_enh_40" depart="1669.01" from="1296098177" to="-333292211#2" type="bus_bus" color="128,128,128" departLane="best" departSpeed="max" departPos="random" speedFactor="1.02" /><trip id="bus_801715_enh_41" depart="1715.70" from="587063904" to="587063887#0" type="bus_bus" color="255,255,0" departLane="best" departSpeed="max" departPos="random" speedFactor="1.12" /><trip id="bus_801715_enh_42" depart="1754.09" from="1296098177" to="587063887#0" type="bus_bus" color="128,128,128" departLane="best" departSpeed="max" departPos="random" speedFactor="1.11" /><trip id="bus_801715_enh_43" depart="1812.78" from="587063904" to="-1293084433" type="bus_bus" color="255,0,0" departLane="best" departSpeed="max" departPos="random" speedFactor="1.09" /><trip id="bus_801715_enh_44" depart="1835.22" from="1296098177" to="-333292211#2" type="bus_bus" color="255,165,0" departLane="best" departSpeed="max" departPos="random" speedFactor="1.03" /><trip id="bus_801715_enh_45" depart="1995.99" from="1296098177" to="1252226316" type="bus_bus" color="255,255,255" departLane="best" departSpeed="max" departPos="random" speedFactor="1.09" /><trip id="bus_801715_enh_46" depart="2008.38" from="-587063887#5" to="-333292211#2" type="bus_bus" color="0,0,255" departLane="best" departSpeed="max" departPos="random" speedFactor="1.12" /><trip id="bus_801715_enh_47" depart="2020.74" from="1252226318#0" to="-1293084433" type="bus_bus" color="255,165,0" departLane="best" departSpeed="max" departPos="random" speedFactor="1.14" /><trip id="bus_801715_enh_48" depart="2120.87" from="-587063887#5" to="-1293084433" type="bus_bus" color="0,128,0" departLane="best" departSpeed="max" departPos="random" speedFactor="0.96" /><trip id="bus_801715_enh_49" depart="2172.81" from="1296098177" to="587063887#0" type="bus_bus" color="255,255,0" departLane="best" departSpeed="max" departPos="random" speedFactor="1.06" /><trip id="bus_801715_enh_50" depart="2242.66" from="1296098177" to="587063887#0" type="bus_bus" color="128,128,128" departLane="best" departSpeed="max" departPos="random" speedFactor="1.09" /><trip id="bus_801715_enh_51" depart="2271.77" from="-587063887#5" to="-1293084433" type="bus_bus" color="255,165,0" departLane="best" departSpeed="max" departPos="random" speedFactor="1.1" /><trip id="bus_801715_enh_52" depart="2333.67" from="1296098177" to="587063887#0" type="bus_bus" color="255,255,0" departLane="best" departSpeed="max" departPos="random" speedFactor="0.96" /><trip id="bus_801715_enh_53" depart="2472.79" from="-587063887#5" to="-1293084433" type="bus_bus" color="0,0,255" departLane="best" departSpeed="max" departPos="random" speedFactor="1.05" /><trip id="bus_801715_enh_54" depart="2495.15" from="-587063887#5" to="-1293084433" type="bus_bus" color="255,255,0" departLane="best" departSpeed="max" departPos="random" speedFactor="0.97" /><trip id="bus_801715_enh_55" depart="2534.71" from="-587063887#5" to="-1293084433" type="bus_bus" color="0,128,0" departLane="best" departSpeed="max" departPos="random" speedFactor="1.05" /><trip id="bus_801715_enh_56" depart="2543.63" from="-587063887#5" to="-1293084433" type="bus_bus" color="255,165,0" departLane="best" departSpeed="max" departPos="random" speedFactor="1.03" /><trip id="bus_801715_enh_57" depart="2674.10" from="-587063887#5" to="-1293084433" type="bus_bus" color="255,0,0" departLane="best" departSpeed="max" departPos="random" speedFactor="0.99" /><trip id="bus_801715_enh_58" depart="2700.21" from="-587063887#5" to="-1293084433" type="bus_bus" color="255,165,0" departLane="best" departSpeed="max" departPos="random" speedFactor="1.02" /><trip id="bus_801715_enh_59" depart="2773.15" from="1296098177" to="587063887#0" type="bus_bus" color="255,255,0" departLane="best" departSpeed="max" departPos="random" speedFactor="0.97" /><trip id="bus_801715_enh_60" depart="2824.94" from="-587063887#5" to="-1293084433" type="bus_bus" color="255,0,0" departLane="best" departSpeed="max" departPos="random" speedFactor="0.97" /><trip id="bus_801715_enh_61" depart="2940.06" from="-587063887#5" to="-1293084433" type="bus_bus" color="255,255,255" departLane="best" departSpeed="max" departPos="random" speedFactor="0.96" /><trip id="bus_801715_enh_62" depart="2964.18" from="1296098177" to="587063887#0" type="bus_bus" color="0,128,0" departLane="best" departSpeed="max" departPos="random" speedFactor="0.97" /><trip id="bus_801715_enh_63" depart="3003.54" from="1296098177" to="587063887#0" type="bus_bus" color="255,165,0" departLane="best" departSpeed="max" departPos="random" speedFactor="0.98" /><trip id="bus_801715_enh_64" depart="3018.03" from="1296098177" to="-1293084433" via="1252226316" type="bus_bus" color="128,128,128" departLane="best" departSpeed="max" departPos="random" speedFactor="0.95" /><trip id="bus_801715_enh_65" depart="3151.39" from="1296098177" to="-1293084433" via="587063900#0" type="bus_bus" color="255,255,0" departLane="best" departSpeed="max" departPos="random" speedFactor="1.14" /><trip id="bus_801715_enh_66" depart="3171.54" from="1296098177" to="-1293084433" via="1252226316" type="bus_bus" color="255,255,0" departLane="best" departSpeed="max" departPos="random" speedFactor="0.89" /><trip id="bus_801715_enh_67" depart="3295.16" from="1296098177" to="-1293084433" via="1252226316" type="bus_bus" color="255,255,0" departLane="best" departSpeed="max" departPos="random" speedFactor="0.88" /><trip id="bus_801715_enh_68" depart="3325.98" from="1296098177" to="-1293084433" via="1252226316" type="bus_bus" color="255,0,0" departLane="best" departSpeed="max" departPos="random" speedFactor="1.0" /><trip id="bus_801715_enh_69" depart="3388.60" from="1296098177" to="-1293084433" via="1252226326" type="bus_bus" color="255,255,255" departLane="best" departSpeed="max" departPos="random" speedFactor="1.05" /><trip id="bus_801715_enh_70" depart="3390.03" from="1296098177" to="-1293084433" via="1252226326" type="bus_bus" color="255,255,0" departLane="best" departSpeed="max" departPos="random" speedFactor="1.07" /><trip id="bus_801715_enh_71" depart="3492.39" from="1296098177" to="-1293084433" via="587063900#0" type="bus_bus" color="255,255,255" departLane="best" departSpeed="max" departPos="random" speedFactor="1.15" /><trip id="bus_801715_enh_72" depart="3531.50" from="1296098177" to="-1293084433" via="421085682" type="bus_bus" color="255,255,255" departLane="best" departSpeed="max" departPos="random" speedFactor="1.09" /></routes>