<?xml version="1.0" encoding="UTF-8"?>

<!-- generated on 2025-09-03 00:52:09.549728 by osmWebWizard.py v1_24_0+0000-b72eb3fabc8
<configuration>
    <net-file value="C:\Users\kgaqu\OneDrive\Documents\4th Year\Capstone 2\v10\osm_importer\osm_scenarios\2025-09-03-00-52-05\osm.net.xml.gz"/>
    <output-trip-file value="C:\Users\kgaqu\OneDrive\Documents\4th Year\Capstone 2\v10\osm_importer\osm_scenarios\2025-09-03-00-52-05\osm.truck.trips.xml"/>
    <route-file value="C:\Users\kgaqu\OneDrive\Documents\4th Year\Capstone 2\v10\osm_importer\osm_scenarios\2025-09-03-00-52-05\osm.truck.rou.xml"/>
    <prefix value="truck"/>
    <trip-attributes value="departLane=&quot;best&quot;"/>
    <fringe-start-attributes value="departSpeed=&quot;max&quot;"/>
    <vehicle-class value="truck"/>
    <fringe-factor value="5"/>
    <edge-permission value="truck"/>
    <via-edge-types value="highway.motorway,highway.motorway_link,highway.trunk_link,highway.primary_link,highway.secondary_link,highway.tertiary_link"/>
    <seed value="47"/>
    <min-distance value="600.0"/>
    <min-distance.fringe value="10.0"/>
    <remove-loops value="True"/>
    <insertion-density value="8.0"/>
</configuration>
-->

<routes xmlns:xsi="http://www.w3.org/2001/XMLSchema-instance" xsi:noNamespaceSchemaLocation="http://sumo.dlr.de/xsd/routes_file.xsd">
    <vType id="truck_truck" vClass="truck"/>
    <trip id="truck0" depart="0.00" from="1252226318#0" to="-333292211#2" departLane="best" type="truck_truck"/>
    <trip id="truck1" depart="57.86" from="1287697069" to="-333292211#2" departLane="best" type="truck_truck"/>
    <trip id="truck2" depart="115.72" from="1296098177" to="-333292211#2" departLane="best" type="truck_truck"/>
    <trip id="truck3" depart="173.58" from="-1293084433" to="-333292211#2" departLane="best" type="truck_truck"/>
    <trip id="truck4" depart="231.43" from="587063904" to="587063887#0" departLane="best" type="truck_truck" departSpeed="max"/>
    <trip id="truck5" depart="289.29" from="1296098178" to="-333292211#2" departLane="best" type="truck_truck" departSpeed="max"/>
    <trip id="truck6" depart="347.15" from="587063904" to="-1252226314" departLane="best" type="truck_truck" departSpeed="max"/>
    <trip id="truck7" depart="405.01" from="587063904" to="587063887#0" departLane="best" type="truck_truck" departSpeed="max"/>
    <trip id="truck8" depart="462.87" from="-1252226314" to="-333292211#2" departLane="best" type="truck_truck"/>
    <trip id="truck9" depart="520.73" from="1252226323" to="-333292211#2" departLane="best" type="truck_truck"/>
    <trip id="truck10" depart="578.59" from="1296098178" to="587063887#0" departLane="best" type="truck_truck" departSpeed="max"/>
    <trip id="truck11" depart="636.45" from="587063904" to="587063887#0" departLane="best" type="truck_truck" departSpeed="max"/>
    <trip id="truck12" depart="694.30" from="-587063887#6" to="421085682" departLane="best" type="truck_truck" departSpeed="max"/>
    <trip id="truck13" depart="752.16" from="1296098178" to="-333292211#2" departLane="best" type="truck_truck" departSpeed="max"/>
    <trip id="truck14" depart="810.02" from="-587063887#6" to="421085682" departLane="best" type="truck_truck" departSpeed="max"/>
    <trip id="truck15" depart="867.88" from="587063904" to="1252226318#0" departLane="best" type="truck_truck" departSpeed="max"/>
    <trip id="truck16" depart="925.74" from="1296098178" to="587063887#0" departLane="best" type="truck_truck" departSpeed="max"/>
    <trip id="truck17" depart="983.60" from="-587063887#6" to="-1296098178" departLane="best" type="truck_truck" departSpeed="max"/>
    <trip id="truck18" depart="1041.46" from="587063904" to="1252226318#0" departLane="best" type="truck_truck" departSpeed="max"/>
    <trip id="truck19" depart="1099.32" from="587063900#0" to="-333292211#2" departLane="best" type="truck_truck"/>
    <trip id="truck20" depart="1157.17" from="587063904" to="-1252226314" departLane="best" type="truck_truck" departSpeed="max"/>
    <trip id="truck21" depart="1215.03" from="587063900#0" to="-333292211#2" departLane="best" type="truck_truck"/>
    <trip id="truck22" depart="1272.89" from="587063904" to="1296098177" departLane="best" type="truck_truck" departSpeed="max"/>
    <trip id="truck23" depart="1330.75" from="-587063887#6" to="-1296098178" departLane="best" type="truck_truck" departSpeed="max"/>
    <trip id="truck24" depart="1388.61" from="587063900#0" to="-333292211#2" departLane="best" type="truck_truck"/>
    <trip id="truck25" depart="1446.47" from="587063904" to="587063887#0" departLane="best" type="truck_truck" departSpeed="max"/>
    <trip id="truck26" depart="1504.33" from="587063904" to="-1296098178" departLane="best" type="truck_truck" departSpeed="max"/>
    <trip id="truck27" depart="1562.18" from="-587063887#6" to="-1293084433" departLane="best" type="truck_truck" departSpeed="max"/>
    <trip id="truck28" depart="1620.04" from="587063904" to="1252226318#0" departLane="best" type="truck_truck" departSpeed="max"/>
    <trip id="truck29" depart="1677.90" from="1296098178" to="587063887#0" departLane="best" type="truck_truck" departSpeed="max"/>
    <trip id="truck30" depart="1735.76" from="1296098178" to="587063887#0" departLane="best" type="truck_truck" departSpeed="max"/>
    <trip id="truck31" depart="1793.62" from="587063904" to="-1296098178" departLane="best" type="truck_truck" departSpeed="max"/>
    <trip id="truck32" depart="1851.48" from="1287697069" to="587063887#0" departLane="best" type="truck_truck"/>
    <trip id="truck33" depart="1909.34" from="1296098178" to="587063887#0" departLane="best" type="truck_truck" departSpeed="max"/>
    <trip id="truck34" depart="1967.20" from="-1293084433" to="587063887#0" departLane="best" type="truck_truck"/>
    <trip id="truck35" depart="2025.05" from="-587063887#6" to="-1296098178" departLane="best" type="truck_truck" departSpeed="max"/>
    <trip id="truck36" depart="2082.91" from="1287697069" to="-333292211#2" departLane="best" type="truck_truck"/>
    <trip id="truck37" depart="2140.77" from="1296098178" to="587063887#0" departLane="best" type="truck_truck" departSpeed="max"/>
    <trip id="truck38" depart="2198.63" from="587063904" to="-1296098178" departLane="best" type="truck_truck" departSpeed="max"/>
    <trip id="truck39" depart="2256.49" from="-1293084433" to="587063887#0" departLane="best" type="truck_truck"/>
    <trip id="truck40" depart="2314.35" from="587063904" to="1296098177" departLane="best" type="truck_truck" departSpeed="max"/>
    <trip id="truck41" depart="2372.21" from="1296098177" to="-333292211#2" departLane="best" type="truck_truck"/>
    <trip id="truck42" depart="2430.06" from="587063904" to="1252226318#0" departLane="best" type="truck_truck" departSpeed="max"/>
    <trip id="truck43" depart="2487.92" from="587063904" to="587063887#0" departLane="best" type="truck_truck" departSpeed="max"/>
    <trip id="truck44" depart="2545.78" from="421085682" to="-333292211#2" departLane="best" type="truck_truck"/>
    <trip id="truck45" depart="2603.64" from="587063904" to="1252226326" departLane="best" type="truck_truck" departSpeed="max"/>
    <trip id="truck46" depart="2661.50" from="-587063887#6" to="-1296098178" departLane="best" type="truck_truck" departSpeed="max"/>
    <trip id="truck47" depart="2719.36" from="587063904" to="587063887#0" departLane="best" type="truck_truck" departSpeed="max"/>
    <trip id="truck48" depart="2777.22" from="1287697069" to="587063887#0" departLane="best" type="truck_truck"/>
    <trip id="truck49" depart="2835.08" from="-587063887#6" to="-333292211#2" departLane="best" type="truck_truck" departSpeed="max"/>
    <trip id="truck50" depart="2892.93" from="587063904" to="1252226316" departLane="best" type="truck_truck" departSpeed="max"/>
    <trip id="truck51" depart="2950.79" from="1296098177" to="-333292211#2" departLane="best" type="truck_truck"/>
    <trip id="truck52" depart="3008.65" from="587063904" to="587063887#0" departLane="best" type="truck_truck" departSpeed="max"/>
    <trip id="truck53" depart="3066.51" from="587063904" to="1252226323" departLane="best" type="truck_truck" departSpeed="max"/>
    <trip id="truck54" depart="3124.37" from="1296098178" to="-333292211#2" departLane="best" type="truck_truck" departSpeed="max"/>
    <trip id="truck55" depart="3182.23" from="-587063887#6" to="-1293084433" departLane="best" type="truck_truck" departSpeed="max"/>
    <trip id="truck56" depart="3240.09" from="-1293084433" to="-333292211#2" departLane="best" type="truck_truck"/>
    <trip id="truck57" depart="3297.95" from="587063900#0" to="-333292211#2" departLane="best" type="truck_truck"/>
    <trip id="truck58" depart="3355.80" from="587063904" to="-1296098178" departLane="best" type="truck_truck" departSpeed="max"/>
    <trip id="truck59" depart="3413.66" from="1296098178" to="587063887#0" departLane="best" type="truck_truck" departSpeed="max"/>
    <trip id="truck60" depart="3471.52" from="1296098177" to="-333292211#2" departLane="best" type="truck_truck"/>
    <trip id="truck61" depart="3529.38" from="1296098177" to="-333292211#2" departLane="best" type="truck_truck"/>
    <trip id="truck62" depart="3587.24" from="587063904" to="-1296098178" departLane="best" type="truck_truck" departSpeed="max"/>
</routes>
