<?xml version='1.0' encoding='utf-8'?>
<routes xmlns:xsi="http://www.w3.org/2001/XMLSchema-instance" xsi:noNamespaceSchemaLocation="http://sumo.dlr.de/xsd/routes_file.xsd"><vType id="veh_passenger" vClass="passenger" guiShape="passenger" color="128,128,128" maxSpeed="55.56" accel="2.6" decel="4.5" />
    <trip id="passenger_844044_0" depart="630.75" from="1019458707" to="573710407" departLane="best" type="veh_passenger" departSpeed="max" /><trip id="passenger_844044_1" depart="360.43" from="-573710407" to="-1019458707" departLane="best" type="veh_passenger" departSpeed="max" /><trip id="passenger_844044_2" depart="1081.28" from="651079976#0" to="-938079508#0" departLane="best" type="veh_passenger" departSpeed="max" /><trip id="passenger_844044_3" depart="0.00" from="1019458707" to="-938079508#0" departLane="best" type="veh_passenger" departSpeed="max" /><trip id="passenger_844044_4" depart="1712.03" from="-573710407" to="-1019458707" departLane="best" type="veh_passenger" departSpeed="max" /><trip id="passenger_844044_5" depart="3333.95" from="-573710407" to="-651079992#1" departLane="best" type="veh_passenger" departSpeed="max" /><trip id="passenger_844044_6" depart="90.11" from="938079508#0" to="-651079992#1" departLane="best" type="veh_passenger" departSpeed="max" /><trip id="passenger_844044_7" depart="720.85" from="-573710407" to="-651079992#1" departLane="best" type="veh_passenger" departSpeed="max" /><trip id="passenger_844044_8" depart="1261.50" from="651079976#0" to="573710407" departLane="best" type="veh_passenger" departSpeed="max" /><trip id="passenger_844044_9" depart="2432.89" from="-573710407" to="-651079992#1" departLane="best" type="veh_passenger" departSpeed="max" /><trip id="passenger_844044_10" depart="270.32" from="-573710407" to="-1019458707" departLane="best" type="veh_passenger" departSpeed="max" /><trip id="passenger_844044_11" depart="1441.71" from="651079976#0" to="-938079508#0" departLane="best" type="veh_passenger" departSpeed="max" /><trip id="passenger_844044_12" depart="180.21" from="-573710407" to="-1019458707" departLane="best" type="veh_passenger" departSpeed="max" /><trip id="passenger_844044_13" depart="1621.92" from="651079976#0" to="-938079508#0" departLane="best" type="veh_passenger" departSpeed="max" /><trip id="passenger_844044_14" depart="450.53" from="938079508#0" to="-1019458707" departLane="best" type="veh_passenger" departSpeed="max" /><trip id="passenger_844044_15" depart="2613.10" from="651079976#0" to="573710407" departLane="best" type="veh_passenger" departSpeed="max" /><trip id="passenger_844044_16" depart="1351.60" from="-573710407" to="-651079992#1" departLane="best" type="veh_passenger" departSpeed="max" /><trip id="passenger_844044_17" depart="2252.67" from="651079976#0" to="573710407" departLane="best" type="veh_passenger" departSpeed="max" /><trip id="passenger_844044_18" depart="1171.39" from="-573710407" to="-651079992#1" departLane="best" type="veh_passenger" departSpeed="max" /><trip id="passenger_844044_19" depart="1802.14" from="651079976#0" to="573710407" departLane="best" type="veh_passenger" departSpeed="max" /><trip id="passenger_844044_20" depart="1982.35" from="651079976#0" to="573710407" departLane="best" type="veh_passenger" departSpeed="max" /><trip id="passenger_844044_21" depart="2162.56" from="-573710407" to="-651079992#1" departLane="best" type="veh_passenger" departSpeed="max" /><trip id="passenger_844044_22" depart="2973.53" from="-573710407" to="-651079992#1" departLane="best" type="veh_passenger" departSpeed="max" /><trip id="passenger_844044_23" depart="1531.82" from="-573710407" to="-1019458707" departLane="best" type="veh_passenger" departSpeed="max" /><trip id="passenger_844044_24" depart="2342.78" from="-573710407" to="-651079992#1" departLane="best" type="veh_passenger" departSpeed="max" /><trip id="passenger_844044_25" depart="3063.63" from="1019458707" to="573710407" departLane="best" type="veh_passenger" departSpeed="max" /><trip id="passenger_844044_26" depart="3243.85" from="-573710407" to="-1019458707" departLane="best" type="veh_passenger" departSpeed="max" /><trip id="passenger_844044_27" depart="810.96" from="-573710407" to="-1019458707" departLane="best" type="veh_passenger" departSpeed="max" /><trip id="passenger_844044_28" depart="1892.24" from="-573710407" to="-1019458707" departLane="best" type="veh_passenger" departSpeed="max" /><trip id="passenger_844044_29" depart="3153.74" from="-573710407" to="-1019458707" departLane="best" type="veh_passenger" departSpeed="max" /><trip id="passenger_844044_30" depart="3514.17" from="651079976#0" to="573710407" departLane="best" type="veh_passenger" departSpeed="max" /><trip id="passenger_844044_31" depart="2793.31" from="-573710407" to="-651079992#1" departLane="best" type="veh_passenger" departSpeed="max" /><trip id="passenger_844044_enh_32" depart="0.00" from="1019458707" to="573710407" type="veh_passenger" color="255,255,255" departLane="best" departSpeed="max" departPos="random" speedFactor="1.01" /><trip id="passenger_844044_enh_33" depart="0.00" from="-938079508#2" to="-1019458707" type="veh_passenger" color="50,205,50" departLane="best" departSpeed="max" departPos="random" speedFactor="1.04" /><trip id="passenger_844044_enh_34" depart="1.37" from="938079508#0" to="573710407" type="veh_passenger" color="128,0,128" departLane="best" departSpeed="max" departPos="random" speedFactor="1.09" /><trip id="passenger_844044_enh_35" depart="8.45" from="1019458707" to="938079508#1" type="veh_passenger" color="192,192,192" departLane="best" departSpeed="max" departPos="random" speedFactor="1.03" /><trip id="passenger_844044_enh_36" depart="179.93" from="651079976#0" to="573710407" type="veh_passenger" color="128,128,128" departLane="best" departSpeed="max" departPos="random" speedFactor="1.0" /><trip id="passenger_844044_enh_37" depart="217.32" from="938079508#1" to="-1019458707" type="veh_passenger" color="0,128,0" departLane="best" departSpeed="max" departPos="random" speedFactor="1.07" /><trip id="passenger_844044_enh_38" depart="254.04" from="-573710407" to="-651079992#1" type="veh_passenger" color="50,205,50" departLane="best" departSpeed="max" departPos="random" speedFactor="0.91" /><trip id="passenger_844044_enh_39" depart="339.83" from="938079508#0" to="-938079508#2" type="veh_passenger" color="128,0,128" departLane="best" departSpeed="max" departPos="random" speedFactor="0.93" /><trip id="passenger_844044_enh_40" depart="430.89" from="-938079508#2" to="-651079992#1" type="veh_passenger" color="128,0,128" departLane="best" departSpeed="max" departPos="random" speedFactor="1.15" /><trip id="passenger_844044_enh_41" depart="468.15" from="938079508#0" to="573710407" type="veh_passenger" color="255,165,0" departLane="best" departSpeed="max" departPos="random" speedFactor="0.92" /><trip id="passenger_844044_enh_42" depart="504.17" from="938079508#0" to="-1019458707" type="veh_passenger" color="0,0,0" departLane="best" departSpeed="max" departPos="random" speedFactor="0.99" /><trip id="passenger_844044_enh_43" depart="508.42" from="938079508#0" to="573710407" type="veh_passenger" color="128,0,128" departLane="best" departSpeed="max" departPos="random" speedFactor="0.96" /><trip id="passenger_844044_enh_44" depart="691.11" from="651079976#0" to="-938079508#0" type="veh_passenger" color="128,128,128" departLane="best" departSpeed="max" departPos="random" speedFactor="1.05" /><trip id="passenger_844044_enh_45" depart="698.73" from="938079508#0" to="-1019458707" type="veh_passenger" color="139,69,19" departLane="best" departSpeed="max" departPos="random" speedFactor="0.93" /><trip id="passenger_844044_enh_46" depart="767.31" from="651079976#0" to="573710407" type="veh_passenger" color="128,128,128" departLane="best" departSpeed="max" departPos="random" speedFactor="1.02" /><trip id="passenger_844044_enh_47" depart="870.19" from="938079508#1" to="-1019458707" type="veh_passenger" color="128,128,128" departLane="best" departSpeed="max" departPos="random" speedFactor="0.9" /><trip id="passenger_844044_enh_48" depart="884.58" from="1019458707" to="-938079508#2" type="veh_passenger" color="255,20,147" departLane="best" departSpeed="max" departPos="random" speedFactor="1.15" /><trip id="passenger_844044_enh_49" depart="929.92" from="938079508#1" to="-651079992#1" type="veh_passenger" color="255,255,0" departLane="best" departSpeed="max" departPos="random" speedFactor="0.99" /><trip id="passenger_844044_enh_50" depart="1033.92" from="1019458707" to="938079508#1" type="veh_passenger" color="50,205,50" departLane="best" departSpeed="max" departPos="random" speedFactor="0.86" /><trip id="passenger_844044_enh_51" depart="1034.77" from="-938079508#2" to="-1019458707" type="veh_passenger" color="0,0,0" departLane="best" departSpeed="max" departPos="random" speedFactor="1.1" /><trip id="passenger_844044_enh_52" depart="1167.99" from="651079976#0" to="-938079508#2" type="veh_passenger" color="0,255,255" departLane="best" departSpeed="max" departPos="random" speedFactor="1.14" /><trip id="passenger_844044_enh_53" depart="1194.90" from="651079976#0" to="-938079508#0" type="veh_passenger" color="50,205,50" departLane="best" departSpeed="max" departPos="random" speedFactor="0.92" /><trip id="passenger_844044_enh_54" depart="1287.06" from="-573710407" to="-938079508#2" type="veh_passenger" color="255,255,255" departLane="best" departSpeed="max" departPos="random" speedFactor="0.96" /><trip id="passenger_844044_enh_55" depart="1327.74" from="651079976#0" to="-938079508#0" type="veh_passenger" color="139,69,19" departLane="best" departSpeed="max" departPos="random" speedFactor="0.89" /><trip id="passenger_844044_enh_56" depart="1356.12" from="651079976#0" to="938079508#1" type="veh_passenger" color="192,192,192" departLane="best" departSpeed="max" departPos="random" speedFactor="0.88" /><trip id="passenger_844044_enh_57" depart="1382.84" from="651079976#0" to="-938079508#2" type="veh_passenger" color="139,69,19" departLane="best" departSpeed="max" departPos="random" speedFactor="0.87" /><trip id="passenger_844044_enh_58" depart="1551.51" from="-573710407" to="-1019458707" type="veh_passenger" color="255,255,255" departLane="best" departSpeed="max" departPos="random" speedFactor="1.09" /><trip id="passenger_844044_enh_59" depart="1552.62" from="938079508#0" to="938079508#1" type="veh_passenger" color="0,0,0" departLane="best" departSpeed="max" departPos="random" speedFactor="0.99" /><trip id="passenger_844044_enh_60" depart="1628.69" from="938079508#0" to="-651079992#1" type="veh_passenger" color="255,165,0" departLane="best" departSpeed="max" departPos="random" speedFactor="0.86" /><trip id="passenger_844044_enh_61" depart="1717.05" from="-573710407" to="-1019458707" type="veh_passenger" color="255,0,0" departLane="best" departSpeed="max" departPos="random" speedFactor="0.91" /><trip id="passenger_844044_enh_62" depart="1765.91" from="-938079508#2" to="-651079992#1" type="veh_passenger" color="139,69,19" departLane="best" departSpeed="max" departPos="random" speedFactor="1.02" /><trip id="passenger_844044_enh_63" depart="1808.52" from="-938079508#2" to="-938079508#0" type="veh_passenger" color="128,128,128" departLane="best" departSpeed="max" departPos="random" speedFactor="1.12" /><trip id="passenger_844044_enh_64" depart="1862.56" from="938079508#0" to="-1019458707" type="veh_passenger" color="139,69,19" departLane="best" departSpeed="max" departPos="random" speedFactor="1.11" /><trip id="passenger_844044_enh_65" depart="1891.53" from="-938079508#2" to="-651079992#1" type="veh_passenger" color="128,0,128" departLane="best" departSpeed="max" departPos="random" speedFactor="1.09" /><trip id="passenger_844044_enh_66" depart="2062.85" from="1019458707" to="938079508#1" type="veh_passenger" color="255,20,147" departLane="best" departSpeed="max" departPos="random" speedFactor="1.03" /><trip id="passenger_844044_enh_67" depart="2070.58" from="-573710407" to="-938079508#2" type="veh_passenger" color="255,255,0" departLane="best" departSpeed="max" departPos="random" speedFactor="1.09" /><trip id="passenger_844044_enh_68" depart="2100.54" from="-573710407" to="-651079992#1" type="veh_passenger" color="0,0,0" departLane="best" departSpeed="max" departPos="random" speedFactor="1.12" /><trip id="passenger_844044_enh_69" depart="2206.73" from="651079976#0" to="-938079508#0" type="veh_passenger" color="50,205,50" departLane="best" departSpeed="max" departPos="random" speedFactor="1.14" /><trip id="passenger_844044_enh_70" depart="2228.74" from="1019458707" to="573710407" type="veh_passenger" color="192,192,192" departLane="best" departSpeed="max" departPos="random" speedFactor="0.96" /><trip id="passenger_844044_enh_71" depart="2315.44" from="938079508#0" to="-1019458707" type="veh_passenger" color="128,128,128" departLane="best" departSpeed="max" departPos="random" speedFactor="1.06" /><trip id="passenger_844044_enh_72" depart="2341.75" from="-573710407" to="-651079992#1" type="veh_passenger" color="0,255,255" departLane="best" departSpeed="max" departPos="random" speedFactor="1.09" /><trip id="passenger_844044_enh_73" depart="2410.67" from="-573710407" to="-651079992#1" type="veh_passenger" color="255,20,147" departLane="best" departSpeed="max" departPos="random" speedFactor="1.1" /><trip id="passenger_844044_enh_74" depart="2544.28" from="651079976#0" to="-938079508#0" type="veh_passenger" color="255,255,255" departLane="best" departSpeed="max" departPos="random" speedFactor="0.96" /><trip id="passenger_844044_enh_75" depart="2576.65" from="938079508#0" to="-651079992#1" type="veh_passenger" color="0,0,0" departLane="best" departSpeed="max" departPos="random" speedFactor="1.05" /><trip id="passenger_844044_enh_76" depart="2612.46" from="1019458707" to="573710407" type="veh_passenger" color="128,128,128" departLane="best" departSpeed="max" departPos="random" speedFactor="0.97" /><trip id="passenger_844044_enh_77" depart="2624.99" from="1019458707" to="-938079508#0" type="veh_passenger" color="255,165,0" departLane="best" departSpeed="max" departPos="random" speedFactor="1.05" /><trip id="passenger_844044_enh_78" depart="2743.24" from="651079976#0" to="-938079508#0" type="veh_passenger" color="50,205,50" departLane="best" departSpeed="max" departPos="random" speedFactor="1.03" /><trip id="passenger_844044_enh_79" depart="2781.35" from="-573710407" to="-651079992#1" type="veh_passenger" color="0,128,0" departLane="best" departSpeed="max" departPos="random" speedFactor="0.99" /><trip id="passenger_844044_enh_80" depart="2858.68" from="1019458707" to="-938079508#0" type="veh_passenger" color="50,205,50" departLane="best" departSpeed="max" departPos="random" speedFactor="1.02" /><trip id="passenger_844044_enh_81" depart="2927.31" from="1019458707" to="938079508#1" type="veh_passenger" color="255,255,255" departLane="best" departSpeed="max" departPos="random" speedFactor="0.97" /><trip id="passenger_844044_enh_82" depart="3015.71" from="-938079508#2" to="-1019458707" type="veh_passenger" color="128,0,128" departLane="best" departSpeed="max" departPos="random" speedFactor="0.97" /><trip id="passenger_844044_enh_83" depart="3060.85" from="-573710407" to="-651079992#1" type="veh_passenger" color="0,0,255" departLane="best" departSpeed="max" departPos="random" speedFactor="0.96" /><trip id="passenger_844044_enh_84" depart="3083.26" from="938079508#0" to="-651079992#1" type="veh_passenger" color="255,165,0" departLane="best" departSpeed="max" departPos="random" speedFactor="0.97" /><trip id="passenger_844044_enh_85" depart="3111.33" from="1019458707" to="573710407" type="veh_passenger" color="255,20,147" departLane="best" departSpeed="max" departPos="random" speedFactor="0.98" /><trip id="passenger_844044_enh_86" depart="3262.49" from="938079508#0" to="-651079992#1" type="veh_passenger" color="139,69,19" departLane="best" departSpeed="max" departPos="random" speedFactor="0.95" /><trip id="passenger_844044_enh_87" depart="3266.99" from="1019458707" to="-938079508#0" type="veh_passenger" color="255,255,255" departLane="best" departSpeed="max" departPos="random" speedFactor="1.14" /><trip id="passenger_844044_enh_88" depart="3396.24" from="651079976#0" to="573710407" type="veh_passenger" color="255,255,255" departLane="best" departSpeed="max" departPos="random" speedFactor="0.89" /><trip id="passenger_844044_enh_89" depart="3440.10" from="1019458707" to="573710407" type="veh_passenger" color="128,128,128" departLane="best" departSpeed="max" departPos="random" speedFactor="0.88" /><trip id="passenger_844044_enh_90" depart="3480.76" from="938079508#0" to="-1019458707" type="veh_passenger" color="0,128,0" departLane="best" departSpeed="max" departPos="random" speedFactor="1.0" /><trip id="passenger_844044_enh_91" depart="3494.50" from="938079508#0" to="-1019458707" type="veh_passenger" color="0,0,255" departLane="best" departSpeed="max" departPos="random" speedFactor="1.05" /><trip id="passenger_844044_enh_92" depart="3599.66" from="-573710407" to="-1019458707" type="veh_passenger" color="128,128,128" departLane="best" departSpeed="max" departPos="random" speedFactor="1.07" /></routes>