<?xml version="1.0" encoding="UTF-8"?>

<!-- generated on 2025-09-03 00:54:28.300280 by osmWebWizard.py v1_24_0+0000-b72eb3fabc8
<configuration>
    <net-file value="C:\Users\kgaqu\OneDrive\Documents\4th Year\Capstone 2\v10\osm_importer\osm_scenarios\2025-09-03-00-54-25\osm.net.xml.gz"/>
    <output-trip-file value="C:\Users\kgaqu\OneDrive\Documents\4th Year\Capstone 2\v10\osm_importer\osm_scenarios\2025-09-03-00-54-25\osm.motorcycle.trips.xml"/>
    <route-file value="C:\Users\kgaqu\OneDrive\Documents\4th Year\Capstone 2\v10\osm_importer\osm_scenarios\2025-09-03-00-54-25\osm.motorcycle.rou.xml"/>
    <prefix value="motorcycle"/>
    <trip-attributes value="departLane=&quot;best&quot;"/>
    <fringe-start-attributes value="departSpeed=&quot;max&quot;"/>
    <vehicle-class value="motorcycle"/>
    <fringe-factor value="2"/>
    <edge-permission value="motorcycle"/>
    <via-edge-types value="highway.motorway,highway.motorway_link,highway.trunk_link,highway.primary_link,highway.secondary_link,highway.tertiary_link"/>
    <seed value="44"/>
    <max-distance value="1200.0"/>
    <remove-loops value="True"/>
    <insertion-density value="4.0"/>
</configuration>
-->

<routes xmlns:xsi="http://www.w3.org/2001/XMLSchema-instance" xsi:noNamespaceSchemaLocation="http://sumo.dlr.de/xsd/routes_file.xsd">
    <vType id="motorcycle_motorcycle" vClass="motorcycle"/>
    <trip id="motorcycle0" depart="0.00" from="1019458707" to="-938079508#0" departLane="best" type="motorcycle_motorcycle" departSpeed="max"/>
    <trip id="motorcycle1" depart="134.95" from="938079508#0" to="-1019458707" departLane="best" type="motorcycle_motorcycle" departSpeed="max"/>
    <trip id="motorcycle2" depart="269.91" from="-938079508#2" to="-1019458707" departLane="best" type="motorcycle_motorcycle"/>
    <trip id="motorcycle3" depart="404.86" from="-573710407" to="-1019458707" departLane="best" type="motorcycle_motorcycle" departSpeed="max"/>
    <trip id="motorcycle4" depart="539.81" from="-573710407" to="-938079508#0" departLane="best" type="motorcycle_motorcycle" departSpeed="max"/>
    <trip id="motorcycle5" depart="674.77" from="938079508#1" to="-938079508#2" departLane="best" type="motorcycle_motorcycle"/>
    <trip id="motorcycle6" depart="809.72" from="1019458707" to="-938079508#0" departLane="best" type="motorcycle_motorcycle" departSpeed="max"/>
    <trip id="motorcycle7" depart="944.67" from="651079976#0" to="-651079992#1" departLane="best" type="motorcycle_motorcycle" departSpeed="max"/>
    <trip id="motorcycle8" depart="1079.63" from="-573710407" to="573710407" departLane="best" type="motorcycle_motorcycle" departSpeed="max"/>
    <trip id="motorcycle9" depart="1214.58" from="651079976#0" to="-1019458707" departLane="best" type="motorcycle_motorcycle" departSpeed="max"/>
    <trip id="motorcycle10" depart="1349.53" from="-573710407" to="-1019458707" departLane="best" type="motorcycle_motorcycle" departSpeed="max"/>
    <trip id="motorcycle11" depart="1484.48" from="938079508#1" to="-1019458707" departLane="best" type="motorcycle_motorcycle"/>
    <trip id="motorcycle12" depart="1619.44" from="651079976#0" to="938079508#1" departLane="best" type="motorcycle_motorcycle" departSpeed="max"/>
    <trip id="motorcycle13" depart="1754.39" from="-573710407" to="-651079992#1" departLane="best" type="motorcycle_motorcycle" departSpeed="max"/>
    <trip id="motorcycle14" depart="1889.34" from="1019458707" to="938079508#1" departLane="best" type="motorcycle_motorcycle" departSpeed="max"/>
    <trip id="motorcycle15" depart="2024.30" from="-573710407" to="-651079992#1" departLane="best" type="motorcycle_motorcycle" departSpeed="max"/>
    <trip id="motorcycle16" depart="2159.25" from="-938079508#2" to="-1019458707" departLane="best" type="motorcycle_motorcycle"/>
    <trip id="motorcycle17" depart="2294.20" from="651079976#0" to="573710407" departLane="best" type="motorcycle_motorcycle" departSpeed="max"/>
    <trip id="motorcycle18" depart="2429.16" from="1019458707" to="-1019458707" departLane="best" type="motorcycle_motorcycle" departSpeed="max"/>
    <trip id="motorcycle19" depart="2564.11" from="938079508#0" to="573710407" departLane="best" type="motorcycle_motorcycle" departSpeed="max"/>
    <trip id="motorcycle20" depart="2699.06" from="651079976#0" to="-651079992#1" departLane="best" type="motorcycle_motorcycle" departSpeed="max"/>
    <trip id="motorcycle21" depart="2834.02" from="938079508#0" to="-938079508#2" departLane="best" type="motorcycle_motorcycle" departSpeed="max"/>
    <trip id="motorcycle22" depart="2968.97" from="651079976#0" to="-938079508#0" departLane="best" type="motorcycle_motorcycle" departSpeed="max"/>
    <trip id="motorcycle23" depart="3103.92" from="-938079508#2" to="-938079508#0" departLane="best" type="motorcycle_motorcycle"/>
    <trip id="motorcycle24" depart="3238.88" from="938079508#0" to="-938079508#2" departLane="best" type="motorcycle_motorcycle" departSpeed="max"/>
    <trip id="motorcycle25" depart="3373.83" from="1019458707" to="573710407" departLane="best" type="motorcycle_motorcycle" departSpeed="max"/>
    <trip id="motorcycle26" depart="3508.78" from="938079508#0" to="-1019458707" departLane="best" type="motorcycle_motorcycle" departSpeed="max"/>
</routes>
