<?xml version='1.0' encoding='utf-8'?>
<routes xmlns:xsi="http://www.w3.org/2001/XMLSchema-instance" xsi:noNamespaceSchemaLocation="http://sumo.dlr.de/xsd/routes_file.xsd"><vType id="bus_bus" vClass="bus" guiShape="bus" color="255,255,0" maxSpeed="27.78" length="12.0" />
<trip id="bus_846236_enh_0" depart="3.85" from="1019458707" to="573710407" type="bus_bus" color="255,255,0" departLane="best" departSpeed="max" departPos="random" speedFactor="0.86" /><trip id="bus_846236_enh_1" depart="8.46" from="651079976#0" to="573710407" type="bus_bus" color="255,165,0" departLane="best" departSpeed="max" departPos="random" speedFactor="0.85" /><trip id="bus_846236_enh_2" depart="12.06" from="1019458707" to="-938079508#0" type="bus_bus" color="255,255,255" departLane="best" departSpeed="max" departPos="random" speedFactor="1.0" /><trip id="bus_846236_enh_3" depart="179.86" from="938079508#0" to="-1019458707" type="bus_bus" color="0,0,255" departLane="best" departSpeed="max" departPos="random" speedFactor="1.07" /><trip id="bus_846236_enh_4" depart="247.06" from="938079508#1" to="-651079992#1" type="bus_bus" color="255,255,0" departLane="best" departSpeed="max" departPos="random" speedFactor="1.02" /><trip id="bus_846236_enh_5" depart="259.22" from="938079508#0" to="-1019458707" type="bus_bus" color="0,128,0" departLane="best" departSpeed="max" departPos="random" speedFactor="1.14" /><trip id="bus_846236_enh_6" depart="336.80" from="-573710407" to="-1019458707" type="bus_bus" color="255,255,255" departLane="best" departSpeed="max" departPos="random" speedFactor="0.98" /><trip id="bus_846236_enh_7" depart="461.58" from="1019458707" to="573710407" type="bus_bus" color="255,165,0" departLane="best" departSpeed="max" departPos="random" speedFactor="0.88" /><trip id="bus_846236_enh_8" depart="520.84" from="938079508#0" to="-1019458707" type="bus_bus" color="128,128,128" departLane="best" departSpeed="max" departPos="random" speedFactor="0.92" /><trip id="bus_846236_enh_9" depart="532.49" from="-573710407" to="-651079992#1" type="bus_bus" color="255,165,0" departLane="best" departSpeed="max" departPos="random" speedFactor="1.11" /><trip id="bus_846236_enh_10" depart="702.73" from="-573710407" to="-651079992#1" type="bus_bus" color="0,128,0" departLane="best" departSpeed="max" departPos="random" speedFactor="1.11" /><trip id="bus_846236_enh_11" depart="712.49" from="938079508#0" to="-651079992#1" type="bus_bus" color="255,255,255" departLane="best" departSpeed="max" departPos="random" speedFactor="1.06" /><trip id="bus_846236_enh_12" depart="800.00" from="651079976#0" to="573710407" type="bus_bus" color="255,255,0" departLane="best" departSpeed="max" departPos="random" speedFactor="1.01" /><trip id="bus_846236_enh_13" depart="879.54" from="938079508#0" to="-651079992#1" type="bus_bus" color="255,165,0" departLane="best" departSpeed="max" departPos="random" speedFactor="1.04" /><trip id="bus_846236_enh_14" depart="943.84" from="-573710407" to="-651079992#1" type="bus_bus" color="255,0,0" departLane="best" departSpeed="max" departPos="random" speedFactor="1.09" /><trip id="bus_846236_enh_15" depart="1040.45" from="938079508#0" to="-651079992#1" type="bus_bus" color="0,128,0" departLane="best" departSpeed="max" departPos="random" speedFactor="1.03" /><trip id="bus_846236_enh_16" depart="1074.97" from="1019458707" to="573710407" type="bus_bus" color="255,255,0" departLane="best" departSpeed="max" departPos="random" speedFactor="1.0" /><trip id="bus_846236_enh_17" depart="1179.78" from="938079508#0" to="-651079992#1" type="bus_bus" color="255,0,0" departLane="best" departSpeed="max" departPos="random" speedFactor="1.07" /><trip id="bus_846236_enh_18" depart="1228.26" from="-573710407" to="-1019458707" type="bus_bus" color="255,165,0" departLane="best" departSpeed="max" departPos="random" speedFactor="0.91" /><trip id="bus_846236_enh_19" depart="1344.41" from="938079508#0" to="-1019458707" type="bus_bus" color="255,0,0" departLane="best" departSpeed="max" departPos="random" speedFactor="0.93" /><trip id="bus_846236_enh_20" depart="1412.20" from="1019458707" to="573710407" type="bus_bus" color="255,0,0" departLane="best" departSpeed="max" departPos="random" speedFactor="1.15" /><trip id="bus_846236_enh_21" depart="1434.72" from="651079976#0" to="573710407" type="bus_bus" color="0,128,0" departLane="best" departSpeed="max" departPos="random" speedFactor="0.92" /><trip id="bus_846236_enh_22" depart="1582.31" from="1019458707" to="573710407" type="bus_bus" color="0,0,255" departLane="best" departSpeed="max" departPos="random" speedFactor="0.99" /><trip id="bus_846236_enh_23" depart="1602.40" from="938079508#0" to="-1019458707" type="bus_bus" color="255,0,0" departLane="best" departSpeed="max" departPos="random" speedFactor="0.96" /><trip id="bus_846236_enh_24" depart="1654.54" from="938079508#0" to="-1019458707" type="bus_bus" color="255,255,0" departLane="best" departSpeed="max" departPos="random" speedFactor="1.05" /><trip id="bus_846236_enh_25" depart="1752.89" from="1019458707" to="-938079508#0" type="bus_bus" color="128,128,128" departLane="best" departSpeed="max" departPos="random" speedFactor="0.93" /><trip id="bus_846236_enh_26" depart="1867.17" from="938079508#0" to="-1019458707" type="bus_bus" color="255,255,0" departLane="best" departSpeed="max" departPos="random" speedFactor="1.02" /><trip id="bus_846236_enh_27" depart="1898.78" from="-573710407" to="-651079992#1" type="bus_bus" color="255,255,0" departLane="best" departSpeed="max" departPos="random" speedFactor="0.9" /><trip id="bus_846236_enh_28" depart="1940.90" from="938079508#0" to="-1019458707" type="bus_bus" color="255,165,0" departLane="best" departSpeed="max" departPos="random" speedFactor="1.15" /><trip id="bus_846236_enh_29" depart="2118.10" from="1019458707" to="-938079508#0" type="bus_bus" color="255,255,255" departLane="best" departSpeed="max" departPos="random" speedFactor="0.99" /><trip id="bus_846236_enh_30" depart="2124.36" from="-573710407" to="-1019458707" type="bus_bus" color="255,165,0" departLane="best" departSpeed="max" departPos="random" speedFactor="0.86" /><trip id="bus_846236_enh_31" depart="2135.52" from="1019458707" to="573710407" type="bus_bus" color="0,0,255" departLane="best" departSpeed="max" departPos="random" speedFactor="1.1" /><trip id="bus_846236_enh_32" depart="2287.40" from="1019458707" to="573710407" type="bus_bus" color="128,128,128" departLane="best" departSpeed="max" departPos="random" speedFactor="1.14" /><trip id="bus_846236_enh_33" depart="2367.20" from="651079976#0" to="-938079508#0" type="bus_bus" color="255,165,0" departLane="best" departSpeed="max" departPos="random" speedFactor="0.92" /><trip id="bus_846236_enh_34" depart="2387.27" from="651079976#0" to="-938079508#0" type="bus_bus" color="255,255,0" departLane="best" departSpeed="max" departPos="random" speedFactor="0.96" /><trip id="bus_846236_enh_35" depart="2460.21" from="651079976#0" to="-1019458707" via="938079508#1" type="bus_bus" color="128,128,128" departLane="best" departSpeed="max" departPos="random" speedFactor="0.89" /><trip id="bus_846236_enh_36" depart="2610.70" from="1019458707" to="-651079992#1" via="938079508#1" type="bus_bus" color="0,128,0" departLane="best" departSpeed="max" departPos="random" speedFactor="0.88" /><trip id="bus_846236_enh_37" depart="2620.15" from="1019458707" to="-1019458707" via="-938079508#2" type="bus_bus" color="128,128,128" departLane="best" departSpeed="max" departPos="random" speedFactor="0.87" /><trip id="bus_846236_enh_38" depart="2660.87" from="1019458707" to="-1019458707" via="-938079508#2" type="bus_bus" color="255,255,0" departLane="best" departSpeed="max" departPos="random" speedFactor="1.09" /><trip id="bus_846236_enh_39" depart="2813.69" from="1019458707" to="-651079992#1" via="938079508#1" type="bus_bus" color="0,0,255" departLane="best" departSpeed="max" departPos="random" speedFactor="0.99" /><trip id="bus_846236_enh_40" depart="2844.06" from="651079976#0" to="-1019458707" via="938079508#1" type="bus_bus" color="0,128,0" departLane="best" departSpeed="max" departPos="random" speedFactor="0.86" /><trip id="bus_846236_enh_41" depart="2933.38" from="651079976#0" to="-1019458707" via="938079508#1" type="bus_bus" color="0,0,255" departLane="best" departSpeed="max" departPos="random" speedFactor="0.91" /><trip id="bus_846236_enh_42" depart="2972.92" from="1019458707" to="-1019458707" via="-938079508#2" type="bus_bus" color="128,128,128" departLane="best" departSpeed="max" departPos="random" speedFactor="1.02" /><trip id="bus_846236_enh_43" depart="3087.89" from="651079976#0" to="-651079992#1" via="938079508#1" type="bus_bus" color="255,255,0" departLane="best" departSpeed="max" departPos="random" speedFactor="1.12" /><trip id="bus_846236_enh_44" depart="3152.84" from="1019458707" to="-651079992#1" via="938079508#1" type="bus_bus" color="128,128,128" departLane="best" departSpeed="max" departPos="random" speedFactor="1.11" /><trip id="bus_846236_enh_45" depart="3205.81" from="651079976#0" to="-1019458707" via="938079508#1" type="bus_bus" color="255,0,0" departLane="best" departSpeed="max" departPos="random" speedFactor="1.09" /><trip id="bus_846236_enh_46" depart="3327.09" from="651079976#0" to="-1019458707" via="938079508#1" type="bus_bus" color="255,165,0" departLane="best" departSpeed="max" departPos="random" speedFactor="1.03" /><trip id="bus_846236_enh_47" depart="3338.60" from="651079976#0" to="-651079992#1" via="938079508#1" type="bus_bus" color="255,255,255" departLane="best" departSpeed="max" departPos="random" speedFactor="1.09" /><trip id="bus_846236_enh_48" depart="3466.60" from="1019458707" to="-651079992#1" via="938079508#1" type="bus_bus" color="0,0,255" departLane="best" departSpeed="max" departPos="random" speedFactor="1.12" /><trip id="bus_846236_enh_49" depart="3507.91" from="1019458707" to="-1019458707" via="-938079508#2" type="bus_bus" color="255,165,0" departLane="best" departSpeed="max" departPos="random" speedFactor="1.14" /><trip id="bus_846236_enh_50" depart="3583.52" from="1019458707" to="-651079992#1" via="938079508#1" type="bus_bus" color="0,128,0" departLane="best" departSpeed="max" departPos="random" speedFactor="0.96" /></routes>