<?xml version="1.0" encoding="UTF-8"?>

<!-- generated on 2025-09-03 01:04:12 by Eclipse SUMO duarouter Version 1.24.0
<duarouterConfiguration xmlns:xsi="http://www.w3.org/2001/XMLSchema-instance" xsi:noNamespaceSchemaLocation="http://sumo.dlr.de/xsd/duarouterConfiguration.xsd">

    <input>
        <net-file value="C:\Users\kgaqu\OneDrive\Documents\4th Year\Capstone 2\v10\backend\networks\statesfield_area\statesfield_area.net.xml"/>
        <route-files value="C:\Users\kgaqu\OneDrive\Documents\4th Year\Capstone 2\v10\backend\networks\statesfield_area\routes\osm.bus.trips.xml"/>
    </input>

    <output>
        <output-file value="C:\Users\kgaqu\OneDrive\Documents\4th Year\Capstone 2\v10\backend\networks\statesfield_area\routes\osm.bus.rou.xml"/>
    </output>

    <report>
        <ignore-errors value="true"/>
    </report>

</duarouterConfiguration>
-->

<routes xmlns:xsi="http://www.w3.org/2001/XMLSchema-instance" xsi:noNamespaceSchemaLocation="http://sumo.dlr.de/xsd/routes_file.xsd">
    <vType id="bus_bus" vClass="bus"/>
    <vehicle id="bus0" type="bus_bus" depart="0.00" departLane="best" departSpeed="max">
        <route edges="651079976#0 573710407"/>
    </vehicle>
    <vehicle id="bus1" type="bus_bus" depart="134.95" departLane="best" departSpeed="max">
        <route edges="1019458707 -938079508#0"/>
    </vehicle>
    <vehicle id="bus2" type="bus_bus" depart="269.91" departLane="best" departSpeed="max">
        <route edges="-573710407 -651079992#1"/>
    </vehicle>
    <vehicle id="bus3" type="bus_bus" depart="404.86" departLane="best" departSpeed="max">
        <route edges="1019458707 938079508#1 573710407"/>
    </vehicle>
    <vehicle id="bus4" type="bus_bus" depart="539.81" departLane="best" departSpeed="max">
        <route edges="651079976#0 573710407"/>
    </vehicle>
    <vehicle id="bus5" type="bus_bus" depart="674.77" departLane="best" departSpeed="max">
        <route edges="651079976#0 -938079508#2 -938079508#0"/>
    </vehicle>
    <vehicle id="bus6" type="bus_bus" depart="809.72" departLane="best" departSpeed="max">
        <route edges="651079976#0 -938079508#2 -938079508#0"/>
    </vehicle>
    <vehicle id="bus7" type="bus_bus" depart="944.67" departLane="best" departSpeed="max">
        <route edges="938079508#0 938079508#1 -651079992#1"/>
    </vehicle>
    <vehicle id="bus8" type="bus_bus" depart="1079.63" departLane="best" departSpeed="max">
        <route edges="651079976#0 573710407"/>
    </vehicle>
    <vehicle id="bus9" type="bus_bus" depart="1214.58" departLane="best" departSpeed="max">
        <route edges="651079976#0 573710407"/>
    </vehicle>
    <vehicle id="bus10" type="bus_bus" depart="1349.53" departLane="best" departSpeed="max">
        <route edges="938079508#0 938079508#1 -651079992#1"/>
    </vehicle>
    <vehicle id="bus11" type="bus_bus" depart="1484.48" departLane="best" departSpeed="max">
        <route edges="938079508#0 -1019458707"/>
    </vehicle>
    <vehicle id="bus12" type="bus_bus" depart="1619.44" departLane="best" departSpeed="max">
        <route edges="-573710407 -938079508#2 -1019458707"/>
    </vehicle>
    <vehicle id="bus13" type="bus_bus" depart="1754.39" departLane="best">
        <route edges="938079508#1 -938079508#2 -1019458707"/>
    </vehicle>
    <vehicle id="bus14" type="bus_bus" depart="1889.34" departLane="best" departSpeed="max">
        <route edges="1019458707 938079508#1 -938079508#2"/>
    </vehicle>
    <vehicle id="bus15" type="bus_bus" depart="2024.30" departLane="best" departSpeed="max">
        <route edges="1019458707 938079508#1 573710407"/>
    </vehicle>
    <vehicle id="bus16" type="bus_bus" depart="2159.25" departLane="best" departSpeed="max">
        <route edges="651079976#0 573710407"/>
    </vehicle>
    <vehicle id="bus17" type="bus_bus" depart="2294.20" departLane="best" departSpeed="max">
        <route edges="938079508#0 938079508#1 -651079992#1"/>
    </vehicle>
    <vehicle id="bus18" type="bus_bus" depart="2429.16" departLane="best" departSpeed="max">
        <route edges="1019458707 938079508#1 -938079508#2"/>
    </vehicle>
    <vehicle id="bus19" type="bus_bus" depart="2564.11" departLane="best" departSpeed="max">
        <route edges="651079976#0 573710407"/>
    </vehicle>
    <vehicle id="bus20" type="bus_bus" depart="2699.06" departLane="best" departSpeed="max">
        <route edges="-573710407 -938079508#2 -1019458707"/>
    </vehicle>
    <vehicle id="bus21" type="bus_bus" depart="2834.02" departLane="best">
        <route edges="938079508#1 -938079508#2 -1019458707"/>
    </vehicle>
    <vehicle id="bus22" type="bus_bus" depart="2968.97" departLane="best" departSpeed="max">
        <route edges="-573710407 -938079508#2 -1019458707"/>
    </vehicle>
    <vehicle id="bus23" type="bus_bus" depart="3103.92" departLane="best" departSpeed="max">
        <route edges="1019458707 938079508#1"/>
    </vehicle>
    <vehicle id="bus24" type="bus_bus" depart="3238.88" departLane="best" departSpeed="max">
        <route edges="-573710407 -938079508#2 -1019458707"/>
    </vehicle>
    <vehicle id="bus25" type="bus_bus" depart="3373.83" departLane="best" departSpeed="max">
        <route edges="651079976#0 -938079508#2 -938079508#0"/>
    </vehicle>
    <vehicle id="bus26" type="bus_bus" depart="3508.78" departLane="best" departSpeed="max">
        <route edges="651079976#0 573710407"/>
    </vehicle>
</routes>
