<?xml version='1.0' encoding='utf-8'?>
<routes xmlns:xsi="http://www.w3.org/2001/XMLSchema-instance" xsi:noNamespaceSchemaLocation="http://sumo.dlr.de/xsd/routes_file.xsd"><vType id="truck_truck" vClass="truck" guiShape="truck" color="255,255,255" maxSpeed="25.0" length="10.0" />
<trip id="truck_848496_enh_0" depart="0.00" from="938079508#0" to="-651079992#1" type="truck_truck" color="128,128,128" departLane="best" departSpeed="max" departPos="random" speedFactor="1.12" /><trip id="truck_848496_enh_1" depart="0.00" from="1019458707" to="-938079508#0" type="truck_truck" color="0,0,0" departLane="best" departSpeed="max" departPos="random" speedFactor="1.11" /><trip id="truck_848496_enh_2" depart="164.71" from="938079508#0" to="-651079992#1" type="truck_truck" color="0,0,0" departLane="best" departSpeed="max" departPos="random" speedFactor="0.99" /><trip id="truck_848496_enh_3" depart="278.47" from="-573710407" to="-1019458707" type="truck_truck" color="255,255,0" departLane="best" departSpeed="max" departPos="random" speedFactor="1.09" /><trip id="truck_848496_enh_4" depart="342.55" from="1019458707" to="573710407" type="truck_truck" color="255,255,255" departLane="best" departSpeed="max" departPos="random" speedFactor="0.86" /><trip id="truck_848496_enh_5" depart="534.74" from="651079976#0" to="573710407" type="truck_truck" color="255,255,255" departLane="best" departSpeed="max" departPos="random" speedFactor="0.85" /><trip id="truck_848496_enh_6" depart="540.86" from="1019458707" to="-938079508#0" type="truck_truck" color="0,0,0" departLane="best" departSpeed="max" departPos="random" speedFactor="1.14" /><trip id="truck_848496_enh_7" depart="693.17" from="651079976#0" to="-938079508#0" type="truck_truck" color="255,255,0" departLane="best" departSpeed="max" departPos="random" speedFactor="1.13" /><trip id="truck_848496_enh_8" depart="813.72" from="-573710407" to="-651079992#1" type="truck_truck" color="128,128,128" departLane="best" departSpeed="max" departPos="random" speedFactor="0.95" /><trip id="truck_848496_enh_9" depart="886.06" from="938079508#0" to="-1019458707" type="truck_truck" color="255,255,255" departLane="best" departSpeed="max" departPos="random" speedFactor="1.04" /><trip id="truck_848496_enh_10" depart="1062.18" from="-573710407" to="-1019458707" type="truck_truck" color="255,0,0" departLane="best" departSpeed="max" departPos="random" speedFactor="0.97" /><trip id="truck_848496_enh_11" depart="1073.70" from="1019458707" to="573710407" type="truck_truck" color="0,0,0" departLane="best" departSpeed="max" departPos="random" speedFactor="0.92" /><trip id="truck_848496_enh_12" depart="1234.41" from="1019458707" to="-938079508#0" type="truck_truck" color="255,255,255" departLane="best" departSpeed="max" departPos="random" speedFactor="0.86" /><trip id="truck_848496_enh_13" depart="1344.99" from="1019458707" to="-938079508#0" type="truck_truck" color="255,255,255" departLane="best" departSpeed="max" departPos="random" speedFactor="0.97" /><trip id="truck_848496_enh_14" depart="1412.85" from="651079976#0" to="-1019458707" via="938079508#1" type="truck_truck" color="255,255,0" departLane="best" departSpeed="max" departPos="random" speedFactor="0.97" /><trip id="truck_848496_enh_15" depart="1591.68" from="651079976#0" to="-1019458707" via="-938079508#2" type="truck_truck" color="255,255,0" departLane="best" departSpeed="max" departPos="random" speedFactor="1.12" /><trip id="truck_848496_enh_16" depart="1610.18" from="651079976#0" to="-1019458707" via="-938079508#2" type="truck_truck" color="255,255,255" departLane="best" departSpeed="max" departPos="random" speedFactor="1.02" /><trip id="truck_848496_enh_17" depart="1750.01" from="-573710407" to="-651079992#1" via="938079508#1" type="truck_truck" color="255,255,255" departLane="best" departSpeed="max" departPos="random" speedFactor="0.91" /><trip id="truck_848496_enh_18" depart="1863.51" from="651079976#0" to="-1019458707" via="938079508#1" type="truck_truck" color="0,0,255" departLane="best" departSpeed="max" departPos="random" speedFactor="1.14" /><trip id="truck_848496_enh_19" depart="1934.53" from="651079976#0" to="573710407" via="938079508#1" type="truck_truck" color="255,255,0" departLane="best" departSpeed="max" departPos="random" speedFactor="0.97" /><trip id="truck_848496_enh_20" depart="2116.51" from="1019458707" to="-651079992#1" via="938079508#1" type="truck_truck" color="0,0,255" departLane="best" departSpeed="max" departPos="random" speedFactor="1.11" /><trip id="truck_848496_enh_21" depart="2136.90" from="651079976#0" to="-1019458707" via="-938079508#2" type="truck_truck" color="0,0,0" departLane="best" departSpeed="max" departPos="random" speedFactor="0.98" /><trip id="truck_848496_enh_22" depart="2290.47" from="651079976#0" to="573710407" via="938079508#1" type="truck_truck" color="0,128,0" departLane="best" departSpeed="max" departPos="random" speedFactor="0.88" /><trip id="truck_848496_enh_23" depart="2395.34" from="-573710407" to="-651079992#1" via="938079508#1" type="truck_truck" color="255,255,0" departLane="best" departSpeed="max" departPos="random" speedFactor="0.92" /><trip id="truck_848496_enh_24" depart="2454.44" from="651079976#0" to="-1019458707" via="938079508#1" type="truck_truck" color="0,128,0" departLane="best" departSpeed="max" departPos="random" speedFactor="1.11" /><trip id="truck_848496_enh_25" depart="2622.33" from="1019458707" to="-1019458707" via="938079508#1" type="truck_truck" color="0,0,255" departLane="best" departSpeed="max" departPos="random" speedFactor="1.11" /><trip id="truck_848496_enh_26" depart="2676.27" from="651079976#0" to="-1019458707" via="938079508#1" type="truck_truck" color="0,0,0" departLane="best" departSpeed="max" departPos="random" speedFactor="1.06" /><trip id="truck_848496_enh_27" depart="2813.05" from="1019458707" to="-1019458707" via="938079508#1" type="truck_truck" color="255,255,255" departLane="best" departSpeed="max" departPos="random" speedFactor="1.01" /><trip id="truck_848496_enh_28" depart="2940.51" from="651079976#0" to="-651079992#1" via="-938079508#2" type="truck_truck" color="0,128,0" departLane="best" departSpeed="max" departPos="random" speedFactor="1.04" /><trip id="truck_848496_enh_29" depart="2976.44" from="651079976#0" to="-1019458707" via="-938079508#2" type="truck_truck" color="255,0,0" departLane="best" departSpeed="max" departPos="random" speedFactor="1.09" /><trip id="truck_848496_enh_30" depart="3170.69" from="651079976#0" to="-1019458707" via="938079508#1" type="truck_truck" color="0,0,255" departLane="best" departSpeed="max" departPos="random" speedFactor="1.03" /><trip id="truck_848496_enh_31" depart="3206.74" from="1019458707" to="-651079992#1" via="938079508#1" type="truck_truck" color="255,255,255" departLane="best" departSpeed="max" departPos="random" speedFactor="1.0" /><trip id="truck_848496_enh_32" depart="3336.64" from="651079976#0" to="-651079992#1" via="-938079508#2" type="truck_truck" color="255,0,0" departLane="best" departSpeed="max" departPos="random" speedFactor="1.07" /><trip id="truck_848496_enh_33" depart="3466.40" from="651079976#0" to="-651079992#1" via="938079508#1" type="truck_truck" color="0,128,0" departLane="best" departSpeed="max" departPos="random" speedFactor="0.91" /><trip id="truck_848496_enh_34" depart="3496.89" from="1019458707" to="-1019458707" via="938079508#1" type="truck_truck" color="255,0,0" departLane="best" departSpeed="max" departPos="random" speedFactor="0.93" /></routes>