<?xml version='1.0' encoding='utf-8'?>
<routes xmlns:xsi="http://www.w3.org/2001/XMLSchema-instance" xsi:noNamespaceSchemaLocation="http://sumo.dlr.de/xsd/routes_file.xsd"><vType id="motorcycle_motorcycle" vClass="motorcycle" guiShape="motorcycle" color="255,0,0" maxSpeed="50.0" length="2.5" />
    <trip id="motorcycle_850643_0" depart="2703.21" from="651079976#0" to="-938079508#0" departLane="best" type="motorcycle_motorcycle" departSpeed="max" /><trip id="motorcycle_850643_1" depart="540.64" from="651079976#0" to="573710407" departLane="best" type="motorcycle_motorcycle" departSpeed="max" /><trip id="motorcycle_850643_2" depart="2162.56" from="938079508#0" to="573710407" departLane="best" type="motorcycle_motorcycle" departSpeed="max" /><trip id="motorcycle_850643_3" depart="1081.28" from="-573710407" to="-938079508#0" departLane="best" type="motorcycle_motorcycle" departSpeed="max" /><trip id="motorcycle_850643_4" depart="1351.60" from="1019458707" to="573710407" departLane="best" type="motorcycle_motorcycle" departSpeed="max" /><trip id="motorcycle_850643_5" depart="810.96" from="1019458707" to="-938079508#0" departLane="best" type="motorcycle_motorcycle" departSpeed="max" /><trip id="motorcycle_850643_6" depart="2432.89" from="1019458707" to="-1019458707" departLane="best" type="motorcycle_motorcycle" departSpeed="max" /><trip id="motorcycle_850643_7" depart="0.00" from="-573710407" to="-938079508#2" departLane="best" type="motorcycle_motorcycle" departSpeed="max" /><trip id="motorcycle_850643_8" depart="2973.53" from="938079508#0" to="-938079508#0" departLane="best" type="motorcycle_motorcycle" departSpeed="max" /><trip id="motorcycle_850643_9" depart="270.32" from="-573710407" to="-938079508#0" departLane="best" type="motorcycle_motorcycle" departSpeed="max" /><trip id="motorcycle_850643_10" depart="1892.24" from="1019458707" to="-1019458707" departLane="best" type="motorcycle_motorcycle" departSpeed="max" /><trip id="motorcycle_850643_enh_11" depart="0.00" from="938079508#0" to="-938079508#2" type="motorcycle_motorcycle" color="255,0,0" departLane="best" departSpeed="max" departPos="random" speedFactor="1.01" /><trip id="motorcycle_850643_enh_12" depart="0.00" from="-938079508#2" to="-938079508#2" type="motorcycle_motorcycle" color="128,0,128" departLane="best" departSpeed="max" departPos="random" speedFactor="1.09" /><trip id="motorcycle_850643_enh_13" depart="1.37" from="-573710407" to="938079508#1" type="motorcycle_motorcycle" color="0,0,0" departLane="best" departSpeed="max" departPos="random" speedFactor="0.87" /><trip id="motorcycle_850643_enh_14" depart="8.45" from="651079976#0" to="573710407" type="motorcycle_motorcycle" color="255,165,0" departLane="best" departSpeed="max" departPos="random" speedFactor="0.97" /><trip id="motorcycle_850643_enh_15" depart="179.93" from="938079508#1" to="573710407" type="motorcycle_motorcycle" color="255,255,255" departLane="best" departSpeed="max" departPos="random" speedFactor="0.9" /><trip id="motorcycle_850643_enh_16" depart="217.32" from="938079508#1" to="-938079508#0" type="motorcycle_motorcycle" color="255,255,0" departLane="best" departSpeed="max" departPos="random" speedFactor="0.86" /><trip id="motorcycle_850643_enh_17" depart="254.04" from="-573710407" to="-938079508#2" type="motorcycle_motorcycle" color="128,0,128" departLane="best" departSpeed="max" departPos="random" speedFactor="1.01" /><trip id="motorcycle_850643_enh_18" depart="339.83" from="1019458707" to="573710407" type="motorcycle_motorcycle" color="0,0,0" departLane="best" departSpeed="max" departPos="random" speedFactor="0.99" /><trip id="motorcycle_850643_enh_19" depart="430.89" from="-573710407" to="-938079508#0" type="motorcycle_motorcycle" color="128,0,128" departLane="best" departSpeed="max" departPos="random" speedFactor="0.96" /><trip id="motorcycle_850643_enh_20" depart="468.15" from="-573710407" to="-938079508#2" type="motorcycle_motorcycle" color="0,0,255" departLane="best" departSpeed="max" departPos="random" speedFactor="1.05" /><trip id="motorcycle_850643_enh_21" depart="504.17" from="651079976#0" to="-938079508#2" type="motorcycle_motorcycle" color="255,255,0" departLane="best" departSpeed="max" departPos="random" speedFactor="0.89" /><trip id="motorcycle_850643_enh_22" depart="508.42" from="-573710407" to="-938079508#2" type="motorcycle_motorcycle" color="0,0,255" departLane="best" departSpeed="max" departPos="random" speedFactor="0.9" /><trip id="motorcycle_850643_enh_23" depart="691.11" from="-938079508#2" to="573710407" type="motorcycle_motorcycle" color="255,165,0" departLane="best" departSpeed="max" departPos="random" speedFactor="0.95" /><trip id="motorcycle_850643_enh_24" depart="698.73" from="-573710407" to="-938079508#2" type="motorcycle_motorcycle" color="0,0,0" departLane="best" departSpeed="max" departPos="random" speedFactor="1.11" /><trip id="motorcycle_850643_enh_25" depart="767.31" from="-573710407" to="-938079508#2" type="motorcycle_motorcycle" color="255,255,0" departLane="best" departSpeed="max" departPos="random" speedFactor="0.9" /><trip id="motorcycle_850643_enh_26" depart="870.19" from="938079508#1" to="-1019458707" type="motorcycle_motorcycle" color="255,0,0" departLane="best" departSpeed="max" departPos="random" speedFactor="1.11" /><trip id="motorcycle_850643_enh_27" depart="884.58" from="938079508#1" to="573710407" type="motorcycle_motorcycle" color="255,0,0" departLane="best" departSpeed="max" departPos="random" speedFactor="0.96" /><trip id="motorcycle_850643_enh_28" depart="929.92" from="938079508#1" to="-1019458707" type="motorcycle_motorcycle" color="0,0,0" departLane="best" departSpeed="max" departPos="random" speedFactor="0.91" /><trip id="motorcycle_850643_enh_29" depart="1033.92" from="-938079508#2" to="573710407" type="motorcycle_motorcycle" color="0,0,255" departLane="best" departSpeed="max" departPos="random" speedFactor="0.88" /><trip id="motorcycle_850643_enh_30" depart="1034.77" from="938079508#1" to="-1019458707" type="motorcycle_motorcycle" color="255,0,0" departLane="best" departSpeed="max" departPos="random" speedFactor="0.98" /><trip id="motorcycle_850643_enh_31" depart="1167.99" from="651079976#0" to="938079508#1" type="motorcycle_motorcycle" color="0,0,0" departLane="best" departSpeed="max" departPos="random" speedFactor="0.99" /><trip id="motorcycle_850643_enh_32" depart="1194.90" from="651079976#0" to="573710407" type="motorcycle_motorcycle" color="255,0,0" departLane="best" departSpeed="max" departPos="random" speedFactor="0.9" /><trip id="motorcycle_850643_enh_33" depart="1287.06" from="938079508#0" to="573710407" type="motorcycle_motorcycle" color="0,0,0" departLane="best" departSpeed="max" departPos="random" speedFactor="1.08" /><trip id="motorcycle_850643_enh_34" depart="1327.74" from="-573710407" to="-1019458707" type="motorcycle_motorcycle" color="255,165,0" departLane="best" departSpeed="max" departPos="random" speedFactor="0.88" /><trip id="motorcycle_850643_enh_35" depart="1356.12" from="938079508#0" to="573710407" type="motorcycle_motorcycle" color="255,255,255" departLane="best" departSpeed="max" departPos="random" speedFactor="1.05" /><trip id="motorcycle_850643_enh_36" depart="1382.84" from="938079508#0" to="-651079992#1" type="motorcycle_motorcycle" color="128,0,128" departLane="best" departSpeed="max" departPos="random" speedFactor="1.09" /><trip id="motorcycle_850643_enh_37" depart="1551.51" from="938079508#0" to="-938079508#2" type="motorcycle_motorcycle" color="0,0,0" departLane="best" departSpeed="max" departPos="random" speedFactor="0.95" /><trip id="motorcycle_850643_enh_38" depart="1552.62" from="1019458707" to="-938079508#2" type="motorcycle_motorcycle" color="0,0,0" departLane="best" departSpeed="max" departPos="random" speedFactor="1.12" /><trip id="motorcycle_850643_enh_39" depart="1628.69" from="-938079508#2" to="573710407" type="motorcycle_motorcycle" color="0,128,0" departLane="best" departSpeed="max" departPos="random" speedFactor="0.9" /><trip id="motorcycle_850643_enh_40" depart="1717.05" from="651079976#0" to="-938079508#0" type="motorcycle_motorcycle" color="255,0,0" departLane="best" departSpeed="max" departPos="random" speedFactor="1.07" /><trip id="motorcycle_850643_enh_41" depart="1765.91" from="651079976#0" to="573710407" type="motorcycle_motorcycle" color="0,128,0" departLane="best" departSpeed="max" departPos="random" speedFactor="1.08" /><trip id="motorcycle_850643_enh_42" depart="1808.52" from="938079508#0" to="-1019458707" type="motorcycle_motorcycle" color="255,165,0" departLane="best" departSpeed="max" departPos="random" speedFactor="0.86" /><trip id="motorcycle_850643_enh_43" depart="1862.56" from="938079508#1" to="-1019458707" type="motorcycle_motorcycle" color="0,0,0" departLane="best" departSpeed="max" departPos="random" speedFactor="1.05" /><trip id="motorcycle_850643_enh_44" depart="1891.53" from="-938079508#2" to="-651079992#1" type="motorcycle_motorcycle" color="0,0,255" departLane="best" departSpeed="max" departPos="random" speedFactor="0.97" /><trip id="motorcycle_850643_enh_45" depart="2062.85" from="1019458707" to="573710407" type="motorcycle_motorcycle" color="128,0,128" departLane="best" departSpeed="max" departPos="random" speedFactor="0.97" /><trip id="motorcycle_850643_enh_46" depart="2070.58" from="1019458707" to="573710407" type="motorcycle_motorcycle" color="255,255,255" departLane="best" departSpeed="max" departPos="random" speedFactor="1.11" /><trip id="motorcycle_850643_enh_47" depart="2100.54" from="1019458707" to="-938079508#0" type="motorcycle_motorcycle" color="255,0,0" departLane="best" departSpeed="max" departPos="random" speedFactor="0.97" /><trip id="motorcycle_850643_enh_48" depart="2206.73" from="1019458707" to="573710407" type="motorcycle_motorcycle" color="128,0,128" departLane="best" departSpeed="max" departPos="random" speedFactor="0.97" /><trip id="motorcycle_850643_enh_49" depart="2228.74" from="1019458707" to="573710407" type="motorcycle_motorcycle" color="255,255,0" departLane="best" departSpeed="max" departPos="random" speedFactor="0.96" /><trip id="motorcycle_850643_enh_50" depart="2315.44" from="651079976#0" to="-938079508#0" type="motorcycle_motorcycle" color="255,165,0" departLane="best" departSpeed="max" departPos="random" speedFactor="0.87" /><trip id="motorcycle_850643_enh_51" depart="2341.75" from="1019458707" to="573710407" type="motorcycle_motorcycle" color="128,0,128" departLane="best" departSpeed="max" departPos="random" speedFactor="0.88" /><trip id="motorcycle_850643_enh_52" depart="2410.67" from="-938079508#2" to="-651079992#1" type="motorcycle_motorcycle" color="0,128,0" departLane="best" departSpeed="max" departPos="random" speedFactor="0.9" /><trip id="motorcycle_850643_enh_53" depart="2544.28" from="-938079508#2" to="-1019458707" type="motorcycle_motorcycle" color="255,0,0" departLane="best" departSpeed="max" departPos="random" speedFactor="0.89" /><trip id="motorcycle_850643_enh_54" depart="2576.65" from="938079508#1" to="573710407" type="motorcycle_motorcycle" color="0,0,255" departLane="best" departSpeed="max" departPos="random" speedFactor="0.88" /><trip id="motorcycle_850643_enh_55" depart="2612.46" from="938079508#1" to="573710407" type="motorcycle_motorcycle" color="255,165,0" departLane="best" departSpeed="max" departPos="random" speedFactor="1.0" /><trip id="motorcycle_850643_enh_56" depart="2624.99" from="1019458707" to="-938079508#0" type="motorcycle_motorcycle" color="255,255,0" departLane="best" departSpeed="max" departPos="random" speedFactor="1.05" /><trip id="motorcycle_850643_enh_57" depart="2743.24" from="938079508#1" to="-651079992#1" type="motorcycle_motorcycle" color="0,0,255" departLane="best" departSpeed="max" departPos="random" speedFactor="1.07" /><trip id="motorcycle_850643_enh_58" depart="2781.35" from="1019458707" to="-938079508#2" type="motorcycle_motorcycle" color="0,128,0" departLane="best" departSpeed="max" departPos="random" speedFactor="1.15" /><trip id="motorcycle_850643_enh_59" depart="2858.68" from="651079976#0" to="573710407" type="motorcycle_motorcycle" color="255,255,0" departLane="best" departSpeed="max" departPos="random" speedFactor="1.09" /><trip id="motorcycle_850643_enh_60" depart="2927.31" from="-938079508#2" to="-1019458707" type="motorcycle_motorcycle" color="0,0,0" departLane="best" departSpeed="max" departPos="random" speedFactor="0.87" /><trip id="motorcycle_850643_enh_61" depart="3015.71" from="1019458707" to="-938079508#2" type="motorcycle_motorcycle" color="128,0,128" departLane="best" departSpeed="max" departPos="random" speedFactor="0.91" /><trip id="motorcycle_850643_enh_62" depart="3060.85" from="-573710407" to="-1019458707" type="motorcycle_motorcycle" color="128,0,128" departLane="best" departSpeed="max" departPos="random" speedFactor="1.05" /><trip id="motorcycle_850643_enh_63" depart="3083.26" from="1019458707" to="573710407" type="motorcycle_motorcycle" color="128,0,128" departLane="best" departSpeed="max" departPos="random" speedFactor="0.98" /><trip id="motorcycle_850643_enh_64" depart="3111.33" from="938079508#0" to="-1019458707" type="motorcycle_motorcycle" color="255,255,0" departLane="best" departSpeed="max" departPos="random" speedFactor="0.96" /><trip id="motorcycle_850643_enh_65" depart="3262.49" from="938079508#0" to="-651079992#1" type="motorcycle_motorcycle" color="0,128,0" departLane="best" departSpeed="max" departPos="random" speedFactor="1.01" /><trip id="motorcycle_850643_enh_66" depart="3266.99" from="1019458707" to="573710407" type="motorcycle_motorcycle" color="0,0,0" departLane="best" departSpeed="max" departPos="random" speedFactor="0.94" /><trip id="motorcycle_850643_enh_67" depart="3396.24" from="651079976#0" to="573710407" type="motorcycle_motorcycle" color="255,0,0" departLane="best" departSpeed="max" departPos="random" speedFactor="0.86" /><trip id="motorcycle_850643_enh_68" depart="3440.10" from="1019458707" to="-938079508#0" type="motorcycle_motorcycle" color="255,165,0" departLane="best" departSpeed="max" departPos="random" speedFactor="0.99" /><trip id="motorcycle_850643_enh_69" depart="3480.76" from="938079508#0" to="-651079992#1" type="motorcycle_motorcycle" color="0,0,255" departLane="best" departSpeed="max" departPos="random" speedFactor="1.0" /><trip id="motorcycle_850643_enh_70" depart="3494.50" from="651079976#0" to="-938079508#0" type="motorcycle_motorcycle" color="255,165,0" departLane="best" departSpeed="max" departPos="random" speedFactor="1.07" /><trip id="motorcycle_850643_enh_71" depart="3599.66" from="938079508#0" to="-651079992#1" type="motorcycle_motorcycle" color="0,0,255" departLane="best" departSpeed="max" departPos="random" speedFactor="0.94" /></routes>