<?xml version="1.0" encoding="UTF-8"?>

<!-- generated on 2025-09-03 00:54:28.669302 by osmWebWizard.py v1_24_0+0000-b72eb3fabc8
<configuration>
    <net-file value="C:\Users\kgaqu\OneDrive\Documents\4th Year\Capstone 2\v10\osm_importer\osm_scenarios\2025-09-03-00-54-25\osm.net.xml.gz"/>
    <output-trip-file value="C:\Users\kgaqu\OneDrive\Documents\4th Year\Capstone 2\v10\osm_importer\osm_scenarios\2025-09-03-00-54-25\osm.passenger.trips.xml"/>
    <route-file value="C:\Users\kgaqu\OneDrive\Documents\4th Year\Capstone 2\v10\osm_importer\osm_scenarios\2025-09-03-00-54-25\osm.passenger.rou.xml"/>
    <prefix value="veh"/>
    <trip-attributes value="departLane=&quot;best&quot;"/>
    <fringe-start-attributes value="departSpeed=&quot;max&quot;"/>
    <vehicle-class value="passenger"/>
    <lanes value="True"/>
    <fringe-factor value="5"/>
    <allow-fringe.min-length value="1000.0"/>
    <edge-permission value="passenger"/>
    <via-edge-types value="highway.motorway,highway.motorway_link,highway.trunk_link,highway.primary_link,highway.secondary_link,highway.tertiary_link"/>
    <seed value="45"/>
    <min-distance value="300.0"/>
    <min-distance.fringe value="10.0"/>
    <remove-loops value="True"/>
    <insertion-density value="12.0"/>
</configuration>
-->

<routes xmlns:xsi="http://www.w3.org/2001/XMLSchema-instance" xsi:noNamespaceSchemaLocation="http://sumo.dlr.de/xsd/routes_file.xsd">
    <vType id="veh_passenger" vClass="passenger"/>
    <trip id="veh0" depart="0.00" from="-573710407" to="-651079992#1" departLane="best" type="veh_passenger" departSpeed="max"/>
    <trip id="veh1" depart="44.98" from="-573710407" to="-1019458707" departLane="best" type="veh_passenger" departSpeed="max"/>
    <trip id="veh2" depart="89.97" from="-573710407" to="-1019458707" departLane="best" type="veh_passenger" departSpeed="max"/>
    <trip id="veh3" depart="134.95" from="651079976#0" to="573710407" departLane="best" type="veh_passenger" departSpeed="max"/>
    <trip id="veh4" depart="179.94" from="651079976#0" to="573710407" departLane="best" type="veh_passenger" departSpeed="max"/>
    <trip id="veh5" depart="224.92" from="-573710407" to="-651079992#1" departLane="best" type="veh_passenger" departSpeed="max"/>
    <trip id="veh6" depart="269.91" from="651079976#0" to="573710407" departLane="best" type="veh_passenger" departSpeed="max"/>
    <trip id="veh7" depart="314.89" from="-573710407" to="-1019458707" departLane="best" type="veh_passenger" departSpeed="max"/>
    <trip id="veh8" depart="359.88" from="651079976#0" to="573710407" departLane="best" type="veh_passenger" departSpeed="max"/>
    <trip id="veh9" depart="404.86" from="651079976#0" to="573710407" departLane="best" type="veh_passenger" departSpeed="max"/>
    <trip id="veh10" depart="449.84" from="651079976#0" to="573710407" departLane="best" type="veh_passenger" departSpeed="max"/>
    <trip id="veh11" depart="494.83" from="651079976#0" to="-1019458707" departLane="best" type="veh_passenger" departSpeed="max"/>
    <trip id="veh12" depart="539.81" from="-573710407" to="-651079992#1" departLane="best" type="veh_passenger" departSpeed="max"/>
    <trip id="veh13" depart="584.80" from="651079976#0" to="-938079508#0" departLane="best" type="veh_passenger" departSpeed="max"/>
    <trip id="veh14" depart="629.78" from="-573710407" to="-651079992#1" departLane="best" type="veh_passenger" departSpeed="max"/>
    <trip id="veh15" depart="674.77" from="651079976#0" to="-938079508#0" departLane="best" type="veh_passenger" departSpeed="max"/>
    <trip id="veh16" depart="719.75" from="651079976#0" to="-938079508#0" departLane="best" type="veh_passenger" departSpeed="max"/>
    <trip id="veh17" depart="764.73" from="-573710407" to="-1019458707" departLane="best" type="veh_passenger" departSpeed="max"/>
    <trip id="veh18" depart="809.72" from="651079976#0" to="573710407" departLane="best" type="veh_passenger" departSpeed="max"/>
    <trip id="veh19" depart="854.70" from="-573710407" to="-1019458707" departLane="best" type="veh_passenger" departSpeed="max"/>
    <trip id="veh20" depart="899.69" from="651079976#0" to="-938079508#0" departLane="best" type="veh_passenger" departSpeed="max"/>
    <trip id="veh21" depart="944.67" from="-573710407" to="-651079992#1" departLane="best" type="veh_passenger" departSpeed="max"/>
    <trip id="veh22" depart="989.66" from="651079976#0" to="573710407" departLane="best" type="veh_passenger" departSpeed="max"/>
    <trip id="veh23" depart="1034.64" from="651079976#0" to="573710407" departLane="best" type="veh_passenger" departSpeed="max"/>
    <trip id="veh24" depart="1079.63" from="-573710407" to="-651079992#1" departLane="best" type="veh_passenger" departSpeed="max"/>
    <trip id="veh25" depart="1124.61" from="938079508#0" to="-651079992#1" departLane="best" type="veh_passenger" departSpeed="max"/>
    <trip id="veh26" depart="1169.59" from="938079508#0" to="-651079992#1" departLane="best" type="veh_passenger" departSpeed="max"/>
    <trip id="veh27" depart="1214.58" from="1019458707" to="573710407" departLane="best" type="veh_passenger" departSpeed="max"/>
    <trip id="veh28" depart="1259.56" from="651079976#0" to="573710407" departLane="best" type="veh_passenger" departSpeed="max"/>
    <trip id="veh29" depart="1304.55" from="651079976#0" to="573710407" departLane="best" type="veh_passenger" departSpeed="max"/>
    <trip id="veh30" depart="1349.53" from="651079976#0" to="-1019458707" departLane="best" type="veh_passenger" departSpeed="max"/>
    <trip id="veh31" depart="1394.52" from="938079508#0" to="-651079992#1" departLane="best" type="veh_passenger" departSpeed="max"/>
    <trip id="veh32" depart="1439.50" from="-573710407" to="-1019458707" departLane="best" type="veh_passenger" departSpeed="max"/>
    <trip id="veh33" depart="1484.48" from="651079976#0" to="573710407" departLane="best" type="veh_passenger" departSpeed="max"/>
    <trip id="veh34" depart="1529.47" from="938079508#1" to="-938079508#0" departLane="best" type="veh_passenger"/>
    <trip id="veh35" depart="1574.45" from="938079508#0" to="-938079508#2" departLane="best" type="veh_passenger" departSpeed="max"/>
    <trip id="veh36" depart="1619.44" from="-573710407" to="-651079992#1" departLane="best" type="veh_passenger" departSpeed="max"/>
    <trip id="veh37" depart="1664.42" from="651079976#0" to="-1019458707" departLane="best" type="veh_passenger" departSpeed="max"/>
    <trip id="veh38" depart="1709.41" from="651079976#0" to="573710407" departLane="best" type="veh_passenger" departSpeed="max"/>
    <trip id="veh39" depart="1754.39" from="651079976#0" to="573710407" departLane="best" type="veh_passenger" departSpeed="max"/>
    <trip id="veh40" depart="1799.38" from="651079976#0" to="573710407" departLane="best" type="veh_passenger" departSpeed="max"/>
    <trip id="veh41" depart="1844.36" from="651079976#0" to="938079508#1" departLane="best" type="veh_passenger" departSpeed="max"/>
    <trip id="veh42" depart="1889.34" from="651079976#0" to="938079508#1" departLane="best" type="veh_passenger" departSpeed="max"/>
    <trip id="veh43" depart="1934.33" from="651079976#0" to="573710407" departLane="best" type="veh_passenger" departSpeed="max"/>
    <trip id="veh44" depart="1979.31" from="651079976#0" to="573710407" departLane="best" type="veh_passenger" departSpeed="max"/>
    <trip id="veh45" depart="2024.30" from="-573710407" to="-1019458707" departLane="best" type="veh_passenger" departSpeed="max"/>
    <trip id="veh46" depart="2069.28" from="651079976#0" to="-1019458707" departLane="best" type="veh_passenger" departSpeed="max"/>
    <trip id="veh47" depart="2114.27" from="-573710407" to="-651079992#1" departLane="best" type="veh_passenger" departSpeed="max"/>
    <trip id="veh48" depart="2159.25" from="-938079508#2" to="573710407" departLane="best" type="veh_passenger"/>
    <trip id="veh49" depart="2204.24" from="1019458707" to="-651079992#1" departLane="best" type="veh_passenger" departSpeed="max"/>
    <trip id="veh50" depart="2249.22" from="651079976#0" to="573710407" departLane="best" type="veh_passenger" departSpeed="max"/>
    <trip id="veh51" depart="2294.20" from="938079508#0" to="-1019458707" departLane="best" type="veh_passenger" departSpeed="max"/>
    <trip id="veh52" depart="2339.19" from="1019458707" to="-651079992#1" departLane="best" type="veh_passenger" departSpeed="max"/>
    <trip id="veh53" depart="2384.17" from="651079976#0" to="-938079508#0" departLane="best" type="veh_passenger" departSpeed="max"/>
    <trip id="veh54" depart="2429.16" from="651079976#0" to="573710407" departLane="best" type="veh_passenger" departSpeed="max"/>
    <trip id="veh55" depart="2474.14" from="-573710407" to="-651079992#1" departLane="best" type="veh_passenger" departSpeed="max"/>
    <trip id="veh56" depart="2519.13" from="1019458707" to="573710407" departLane="best" type="veh_passenger" departSpeed="max"/>
    <trip id="veh57" depart="2564.11" from="938079508#0" to="-651079992#1" departLane="best" type="veh_passenger" departSpeed="max"/>
    <trip id="veh58" depart="2609.09" from="-573710407" to="938079508#1" departLane="best" type="veh_passenger" departSpeed="max"/>
    <trip id="veh59" depart="2654.08" from="1019458707" to="573710407" departLane="best" type="veh_passenger" departSpeed="max"/>
    <trip id="veh60" depart="2699.06" from="651079976#0" to="-938079508#0" departLane="best" type="veh_passenger" departSpeed="max"/>
    <trip id="veh61" depart="2744.05" from="651079976#0" to="-1019458707" departLane="best" type="veh_passenger" departSpeed="max"/>
    <trip id="veh62" depart="2789.03" from="651079976#0" to="573710407" departLane="best" type="veh_passenger" departSpeed="max"/>
    <trip id="veh63" depart="2834.02" from="1019458707" to="573710407" departLane="best" type="veh_passenger" departSpeed="max"/>
    <trip id="veh64" depart="2879.00" from="-573710407" to="-651079992#1" departLane="best" type="veh_passenger" departSpeed="max"/>
    <trip id="veh65" depart="2923.99" from="-573710407" to="-651079992#1" departLane="best" type="veh_passenger" departSpeed="max"/>
    <trip id="veh66" depart="2968.97" from="651079976#0" to="573710407" departLane="best" type="veh_passenger" departSpeed="max"/>
    <trip id="veh67" depart="3013.95" from="651079976#0" to="573710407" departLane="best" type="veh_passenger" departSpeed="max"/>
    <trip id="veh68" depart="3058.94" from="-573710407" to="-651079992#1" departLane="best" type="veh_passenger" departSpeed="max"/>
    <trip id="veh69" depart="3103.92" from="-573710407" to="-1019458707" departLane="best" type="veh_passenger" departSpeed="max"/>
    <trip id="veh70" depart="3148.91" from="938079508#1" to="573710407" departLane="best" type="veh_passenger"/>
    <trip id="veh71" depart="3193.89" from="-573710407" to="-1019458707" departLane="best" type="veh_passenger" departSpeed="max"/>
    <trip id="veh72" depart="3238.88" from="651079976#0" to="573710407" departLane="best" type="veh_passenger" departSpeed="max"/>
    <trip id="veh73" depart="3283.86" from="-938079508#2" to="573710407" departLane="best" type="veh_passenger"/>
    <trip id="veh74" depart="3328.84" from="651079976#0" to="573710407" departLane="best" type="veh_passenger" departSpeed="max"/>
    <trip id="veh75" depart="3373.83" from="938079508#1" to="-651079992#1" departLane="best" type="veh_passenger"/>
    <trip id="veh76" depart="3418.81" from="-573710407" to="-1019458707" departLane="best" type="veh_passenger" departSpeed="max"/>
    <trip id="veh77" depart="3463.80" from="938079508#0" to="-651079992#1" departLane="best" type="veh_passenger" departSpeed="max"/>
    <trip id="veh78" depart="3508.78" from="-573710407" to="-651079992#1" departLane="best" type="veh_passenger" departSpeed="max"/>
    <trip id="veh79" depart="3553.77" from="-573710407" to="-1019458707" departLane="best" type="veh_passenger" departSpeed="max"/>
    <trip id="veh80" depart="3598.75" from="651079976#0" to="-1019458707" departLane="best" type="veh_passenger" departSpeed="max"/>
</routes>
