<?xml version="1.0" encoding="UTF-8"?>

<!-- generated on 2025-09-17 21:49:30.127402 by randomTrips.py v1_24_0+0000-b72eb3fabc8
<configuration>
    <net-file value="osm.net.xml.gz"/>
    <output-trip-file value="osm.passenger.trips.xml"/>
    <route-file value="osm.passenger.rou.xml"/>
    <prefix value="veh"/>
    <trip-attributes value="departLane=&quot;best&quot;"/>
    <fringe-start-attributes value="departSpeed=&quot;max&quot;"/>
    <vehicle-class value="passenger"/>
    <lanes value="True"/>
    <fringe-factor value="5"/>
    <allow-fringe.min-length value="1000.0"/>
    <edge-permission value="passenger"/>
    <via-edge-types value="highway.motorway,highway.motorway_link,highway.trunk_link,highway.primary_link,highway.secondary_link,highway.tertiary_link"/>
    <seed value="44"/>
    <min-distance value="300.0"/>
    <min-distance.fringe value="10.0"/>
    <remove-loops value="True"/>
    <insertion-density value="12.0"/>
</configuration>
-->

<routes xmlns:xsi="http://www.w3.org/2001/XMLSchema-instance" xsi:noNamespaceSchemaLocation="http://sumo.dlr.de/xsd/routes_file.xsd">
    <vType id="veh_passenger" vClass="passenger"/>
    <trip id="veh0" depart="0.00" from="1019458712" to="109971518#0" departLane="best" type="veh_passenger" departSpeed="max"/>
    <trip id="veh1" depart="56.61" from="-183532951#1" to="-1019458712" departLane="best" type="veh_passenger" departSpeed="max"/>
    <trip id="veh2" depart="113.21" from="820090516#0" to="109971518#0" departLane="best" type="veh_passenger"/>
    <trip id="veh3" depart="169.82" from="1019458712" to="109971505" departLane="best" type="veh_passenger" departSpeed="max"/>
    <trip id="veh4" depart="226.42" from="130046557#0" to="-46753244" departLane="best" type="veh_passenger" departSpeed="max"/>
    <trip id="veh5" depart="283.03" from="130046557#0" to="-182804112" departLane="best" type="veh_passenger" departSpeed="max"/>
    <trip id="veh6" depart="339.64" from="130046557#0" to="820090516#0" departLane="best" type="veh_passenger" departSpeed="max"/>
    <trip id="veh7" depart="396.24" from="-158466193#1" to="109971505" departLane="best" type="veh_passenger" departSpeed="max"/>
    <trip id="veh8" depart="452.85" from="-183532951#1" to="-282194769#4" departLane="best" type="veh_passenger" departSpeed="max"/>
    <trip id="veh9" depart="509.45" from="-183532951#1" to="-1019458712" departLane="best" type="veh_passenger" departSpeed="max"/>
    <trip id="veh10" depart="566.06" from="130046557#0" to="158466193#1" departLane="best" type="veh_passenger" departSpeed="max"/>
    <trip id="veh11" depart="622.67" from="182804115#2" to="109971518#0" departLane="best" type="veh_passenger"/>
    <trip id="veh12" depart="679.27" from="130046557#0" to="-46753244" departLane="best" type="veh_passenger" departSpeed="max"/>
    <trip id="veh13" depart="735.88" from="282194769#0" to="109971518#0" departLane="best" type="veh_passenger" departSpeed="max"/>
    <trip id="veh14" depart="792.48" from="282194769#0" to="109971518#0" departLane="best" type="veh_passenger" departSpeed="max"/>
    <trip id="veh15" depart="849.09" from="282194769#0" to="-1019458712" departLane="best" type="veh_passenger" departSpeed="max"/>
    <trip id="veh16" depart="905.70" from="-183532951#1" to="-282194769#4" departLane="best" type="veh_passenger" departSpeed="max"/>
    <trip id="veh17" depart="962.30" from="130046557#0" to="-1019458712" departLane="best" type="veh_passenger" departSpeed="max"/>
    <trip id="veh18" depart="1018.91" from="130046557#0" to="-182804115#1" departLane="best" type="veh_passenger" departSpeed="max"/>
    <trip id="veh19" depart="1075.51" from="-183532951#1" to="109971518#0" departLane="best" type="veh_passenger" departSpeed="max"/>
    <trip id="veh20" depart="1132.12" from="282194769#0" to="109971518#0" departLane="best" type="veh_passenger" departSpeed="max"/>
    <trip id="veh21" depart="1188.73" from="-183543979#1" to="109971518#0" departLane="best" type="veh_passenger"/>
    <trip id="veh22" depart="1245.33" from="-183532951#1" to="-1019458712" departLane="best" type="veh_passenger" departSpeed="max"/>
    <trip id="veh23" depart="1301.94" from="-183532951#1" to="109971518#0" departLane="best" type="veh_passenger" departSpeed="max"/>
    <trip id="veh24" depart="1358.54" from="130046557#0" to="-282194769#4" departLane="best" type="veh_passenger" departSpeed="max"/>
    <trip id="veh25" depart="1415.15" from="282194769#0" to="158466193#1" departLane="best" type="veh_passenger" departSpeed="max"/>
    <trip id="veh26" depart="1471.76" from="-183532951#1" to="-1019458712" departLane="best" type="veh_passenger" departSpeed="max"/>
    <trip id="veh27" depart="1528.36" from="130046557#0" to="182804115#2" departLane="best" type="veh_passenger" departSpeed="max"/>
    <trip id="veh28" depart="1584.97" from="130046557#0" to="-282194769#4" departLane="best" type="veh_passenger" departSpeed="max"/>
    <trip id="veh29" depart="1641.57" from="130046557#0" to="5031493" departLane="best" type="veh_passenger" departSpeed="max"/>
    <trip id="veh30" depart="1698.18" from="-158466193#1" to="-282194769#4" departLane="best" type="veh_passenger" departSpeed="max"/>
    <trip id="veh31" depart="1754.79" from="5031493" to="109971518#0" departLane="best" type="veh_passenger"/>
    <trip id="veh32" depart="1811.39" from="-158466193#1" to="109971505" departLane="best" type="veh_passenger" departSpeed="max"/>
    <trip id="veh33" depart="1868.00" from="130046557#0" to="183543979#0" departLane="best" type="veh_passenger" departSpeed="max"/>
    <trip id="veh34" depart="1924.60" from="-158466193#1" to="183543979#0" departLane="best" type="veh_passenger" departSpeed="max"/>
    <trip id="veh35" depart="1981.21" from="130046557#0" to="158466193#1" departLane="best" type="veh_passenger" departSpeed="max"/>
    <trip id="veh36" depart="2037.82" from="-183532951#1" to="109971518#0" departLane="best" type="veh_passenger" departSpeed="max"/>
    <trip id="veh37" depart="2094.42" from="130046557#0" to="-109972547#1" departLane="best" type="veh_passenger" departSpeed="max"/>
    <trip id="veh38" depart="2151.03" from="-183532951#1" to="-282194769#4" departLane="best" type="veh_passenger" departSpeed="max"/>
    <trip id="veh39" depart="2207.63" from="130046557#0" to="183543979#0" departLane="best" type="veh_passenger" departSpeed="max"/>
    <trip id="veh40" depart="2264.24" from="-158466193#1" to="183543979#0" departLane="best" type="veh_passenger" departSpeed="max"/>
    <trip id="veh41" depart="2320.85" from="46753244" to="109971518#0" departLane="best" type="veh_passenger"/>
    <trip id="veh42" depart="2377.45" from="282194769#0" to="109971505" departLane="best" type="veh_passenger" departSpeed="max"/>
    <trip id="veh43" depart="2434.06" from="130046557#0" to="109971505" departLane="best" type="veh_passenger" departSpeed="max"/>
    <trip id="veh44" depart="2490.66" from="-183532951#1" to="109971518#0" departLane="best" type="veh_passenger" departSpeed="max"/>
    <trip id="veh45" depart="2547.27" from="182804118#0" to="-1019458712" departLane="best" type="veh_passenger"/>
    <trip id="veh46" depart="2603.88" from="-183543979#1" to="109971518#0" departLane="best" type="veh_passenger"/>
    <trip id="veh47" depart="2660.48" from="-183532951#1" to="-1019458712" departLane="best" type="veh_passenger" departSpeed="max"/>
    <trip id="veh48" depart="2717.09" from="282194769#0" to="109971518#0" departLane="best" type="veh_passenger" departSpeed="max"/>
    <trip id="veh49" depart="2773.69" from="-46753244" to="109971518#0" departLane="best" type="veh_passenger"/>
    <trip id="veh50" depart="2830.30" from="-183543979#1" to="109971518#0" departLane="best" type="veh_passenger"/>
    <trip id="veh51" depart="2886.91" from="282194769#0" to="-1019458712" departLane="best" type="veh_passenger" departSpeed="max"/>
    <trip id="veh52" depart="2943.51" from="282194769#0" to="-182804115#1" departLane="best" type="veh_passenger" departSpeed="max"/>
    <trip id="veh53" depart="3000.12" from="-158466193#0" to="-109972547#1" departLane="best" type="veh_passenger"/>
    <trip id="veh54" depart="3056.72" from="130046557#0" to="182804115#2" departLane="best" type="veh_passenger" departSpeed="max"/>
    <trip id="veh55" depart="3113.33" from="1019458712" to="46753244" departLane="best" type="veh_passenger" departSpeed="max"/>
    <trip id="veh56" depart="3169.94" from="282194769#0" to="158466193#1" departLane="best" type="veh_passenger" departSpeed="max"/>
    <trip id="veh57" depart="3226.54" from="-183532951#1" to="-282194769#4" departLane="best" type="veh_passenger" departSpeed="max"/>
    <trip id="veh58" depart="3283.15" from="-183532951#1" to="-282194769#4" departLane="best" type="veh_passenger" departSpeed="max"/>
    <trip id="veh59" depart="3339.75" from="130046557#0" to="-183543979#1" departLane="best" type="veh_passenger" departSpeed="max"/>
    <trip id="veh60" depart="3396.36" from="282194769#0" to="109971505" departLane="best" type="veh_passenger" departSpeed="max"/>
    <trip id="veh61" depart="3452.97" from="282194769#0" to="109971518#0" departLane="best" type="veh_passenger" departSpeed="max"/>
    <trip id="veh62" depart="3509.57" from="282194769#0" to="109971505" departLane="best" type="veh_passenger" departSpeed="max"/>
    <trip id="veh63" depart="3566.18" from="1019458712" to="109971505" departLane="best" type="veh_passenger" departSpeed="max"/>
</routes>
