<?xml version="1.0" encoding="UTF-8"?>

<!-- generated on 2025-09-17 21:49:09 by Eclipse SUMO netedit Version 1.24.0
-->

<additional xmlns:xsi="http://www.w3.org/2001/XMLSchema-instance" xsi:noNamespaceSchemaLocation="http://sumo.dlr.de/xsd/additional_file.xsd">
    <!-- Shapes -->
    <poly id="109971505" type="landuse.residential" color="235,235,227" fill="1" layer="-3.00" shape="390.938623,299.353944 391.951902,320.150650 393.394642,335.808582"/>
    <poly id="109971518" type="landuse.residential" color="235,235,227" fill="1" layer="-3.00" shape="390.938623,299.353944 377.786536,300.210974 268.121238,305.324816 132.648409,308.530242"/>
    <poly id="109972543" type="man_made.pipeline" color="255,230,230" fill="0" layer="-1.00" shape="661.606473,38.800176 675.344295,18.626627"/>
    <poly id="1135909063" type="landuse.commercial" color="209,209,204" fill="1" layer="-3.00" shape="270.965143,219.000753 270.513791,208.148170 270.255946,202.130087 233.653501,198.058320 211.653085,196.093714 112.162706,186.908914 102.111571,258.256649 98.328784,294.190728 272.874840,285.318485 270.965143,219.000753"/>
    <poly id="1135910069" type="building.yes" color="255,230,230" fill="1" layer="-1.00" shape="6.434406,107.504989 7.427514,99.007987 15.126197,99.891988 14.133087,108.388990 6.434406,107.504989"/>
    <poly id="1135910070" type="landuse.residential" color="235,235,227" fill="1" layer="-3.00" shape="35.344407,39.045703 35.153791,18.606939 164.213400,15.767469 160.436969,84.337525 219.550024,95.615004 270.359755,105.947449 265.695255,87.008853 294.078679,81.292386 296.718099,94.416569 325.326844,87.336939 345.106951,132.459607 338.145351,134.435335 316.361898,135.069425 299.397590,139.102961 286.183928,142.782608 261.760482,143.727687 99.193529,126.409969 93.162770,167.985766 94.973717,186.241173 94.313351,192.101335 81.189941,226.878102 62.152713,258.884873 23.823216,241.194276 11.531072,263.779196 6.090723,102.771408 8.111607,89.716892 15.681665,91.918979 44.585062,43.546069 35.344407,39.045703"/>
    <poly id="1135910071" type="building.terrace" color="255,230,230" fill="0" layer="-1.00" shape="-7.884461,21.143676 -9.049073,29.763923"/>
    <poly id="1135910074" type="building.yes" color="255,230,230" fill="0" layer="-1.00" shape="-18.884189,37.386992 -20.172749,47.856493"/>
    <poly id="1136383212" type="building.yes" color="255,230,230" fill="1" layer="-1.00" shape="219.898747,17.491246 220.039522,5.283304 240.406854,5.513739 240.255380,17.732839 219.898747,17.491246"/>
    <poly id="1136383213" type="building.yes" color="255,230,230" fill="0" layer="-1.00" shape="241.119586,4.378658 228.691145,4.133769"/>
    <poly id="1136383226" type="building.commercial" color="255,230,230" fill="1" layer="-1.00" shape="310.160024,88.477296 297.659454,91.066117 296.691319,86.459763 295.734261,81.886511 295.373846,80.152189 307.885305,77.574338 308.245719,79.308661 309.169250,83.749405 310.160024,88.477296"/>
    <poly id="1136383227" type="amenity.compressed_air" color="237,199,199" fill="1" layer="-1.00" shape="333.867461,268.735531 337.630912,268.613924 338.026956,280.540471 334.263507,280.662078 333.867461,268.735531"/>
    <poly id="1136383228" type="building.retail" color="255,230,230" fill="1" layer="-1.00" shape="446.685235,160.761531 435.660316,165.561755 432.545635,158.495287 443.570459,153.683996 446.685235,160.761531"/>
    <poly id="1136383229" type="building.retail" color="255,230,230" fill="1" layer="-1.00" shape="429.019534,150.026948 437.529822,149.985402 437.541393,153.759082 429.041989,153.811600 429.019534,150.026948"/>
    <poly id="1136383230" type="building.retail" color="255,230,230" fill="1" layer="-1.00" shape="428.150434,143.184227 443.345202,142.774102 443.520798,149.257709 428.326035,149.667835 428.150434,143.184227"/>
    <poly id="1136383231" type="amenity.fuel" color="237,199,199" fill="1" layer="-1.00" shape="414.108206,341.104677 416.059576,348.358430 408.741816,350.304075 406.801132,343.039162 414.108206,341.104677"/>
    <poly id="1136383231#1" type="building.roof" color="255,230,230" fill="1" layer="-1.00" shape="414.108206,341.104677 416.059576,348.358430 408.741816,350.304075 406.801132,343.039162 414.108206,341.104677"/>
    <poly id="1137029724" type="landuse.retail" color="194,194,130" fill="1" layer="-3.00" shape="405.125141,358.536357 400.126191,334.664893 417.328246,333.152553 421.506974,355.747473 405.125141,358.536357"/>
    <poly id="1137029725" type="building.yes" color="255,230,230" fill="1" layer="-1.00" shape="427.912131,355.514137 425.154045,341.151511 433.984336,339.480322 436.742417,353.842948 427.912131,355.514137"/>
    <poly id="1137029726" type="building.retail" color="255,230,230" fill="1" layer="-1.00" shape="410.429226,368.029351 408.921620,359.720353 413.811041,358.847387 427.563785,356.380408 428.493513,361.529375 429.071386,364.689407 410.429226,368.029351"/>
    <poly id="1137031758" type="landuse.retail" color="194,194,130" fill="1" layer="-3.00" shape="396.715019,209.130811 392.672232,193.418254 420.692397,180.744085 423.084169,197.611028 396.715019,209.130811"/>
    <poly id="1137031759" type="building.yes" color="255,230,230" fill="1" layer="-1.00" shape="424.721220,212.060969 424.160266,178.898668 427.600641,178.835249 428.150804,211.997644 424.721220,212.060969"/>
    <poly id="1139110091" type="shop.car_parts" color="237,199,255" fill="1" layer="-1.00" shape="319.779357,106.619811 325.749737,104.774523 327.392714,110.072157 321.411451,111.906474 319.779357,106.619811"/>
    <poly id="1139110092" type="shop.mobile_phone" color="237,199,255" fill="1" layer="-1.00" shape="319.779357,106.619811 325.749737,104.774523 324.939229,102.147743 318.969237,104.037295 319.779357,106.619811"/>
    <poly id="1139110093" type="shop.paint" color="237,199,255" fill="1" layer="-1.00" shape="318.969237,104.037295 324.939229,102.147743 324.184400,99.719677 318.203038,101.542928 318.969237,104.037295"/>
    <poly id="1139110095" type="shop.bicycle" color="237,199,255" fill="1" layer="-1.00" shape="312.815447,98.513696 311.925742,95.467074 323.159797,92.369248 324.027541,95.371797 312.815447,98.513696"/>
    <poly id="1139110096" type="amenity.school" color="237,199,199" fill="1" layer="-2.00" shape="270.619470,103.587934 268.368368,95.374007 272.052065,94.766155 269.983068,87.635175 290.860239,83.290565 294.842470,99.468454 270.619470,103.587934"/>
    <poly id="1139110096#1" type="building.school" color="255,230,230" fill="1" layer="-1.00" shape="270.619470,103.587934 268.368368,95.374007 272.052065,94.766155 269.983068,87.635175 290.860239,83.290565 294.842470,99.468454 270.619470,103.587934"/>
    <poly id="1139110097" type="shop.motorcycle_parts" color="237,199,255" fill="1" layer="-1.00" shape="311.925742,95.467074 323.159797,92.369248 322.114132,88.759588 310.913307,91.956723 311.925742,95.467074"/>
    <poly id="1139110098" type="amenity.parking" color="184,184,179" fill="1" layer="-1.00" shape="281.267168,120.913521 280.692277,104.595017 299.120272,100.183403 303.029993,114.248168 281.267168,120.913521"/>
    <poly id="1139110099" type="shop.clothes" color="237,199,255" fill="1" layer="-1.00" shape="313.149330,99.683845 324.350151,96.486710 322.114132,88.759588 310.913307,91.956723 313.149330,99.683845"/>
    <poly id="1139110101" type="amenity.post_office" color="237,199,199" fill="1" layer="-1.00" shape="308.245719,79.308661 309.169250,83.749405 296.691319,86.459763 295.734261,81.886511 308.245719,79.308661"/>
    <poly id="1139110102" type="amenity.doctors" color="237,199,199" fill="1" layer="-1.00" shape="296.691319,86.459763 309.169250,83.749405 310.160024,88.477296 297.659454,91.066117 296.691319,86.459763"/>
    <poly id="1141885783" type="shop.pawnbroker" color="237,199,255" fill="1" layer="-1.00" shape="380.789872,230.762468 376.717913,232.602133 379.013069,237.241097 382.847935,235.425648 380.789872,230.762468"/>
    <poly id="1141885784" type="amenity.fast_food" color="237,199,199" fill="1" layer="-1.00" shape="375.675347,244.076512 385.003945,240.187569 383.252939,236.097165 374.111781,240.449268 375.675347,244.076512"/>
    <poly id="1141885784#1" type="building.static_caravan" color="255,230,230" fill="1" layer="-1.00" shape="375.675347,244.076512 385.003945,240.187569 383.252939,236.097165 374.111781,240.449268 375.675347,244.076512"/>
    <poly id="1141885785" type="amenity.police" color="237,199,199" fill="1" layer="-1.00" shape="375.811193,244.805728 381.645415,244.654868 381.556145,250.454662 375.677906,250.506308 375.811193,244.805728"/>
    <poly id="1141885785#1" type="building.civic" color="255,230,230" fill="1" layer="-1.00" shape="375.811193,244.805728 381.645415,244.654868 381.556145,250.454662 375.677906,250.506308 375.811193,244.805728"/>
    <poly id="1141888186" type="landuse.residential" color="235,235,227" fill="1" layer="-3.00" shape="455.286138,381.048284 442.871104,311.082295 602.683791,84.834928 621.929223,78.922372 644.545220,67.446861 662.767202,59.219293 666.453752,67.542379 669.914739,67.368147 672.649960,68.074559 674.275600,68.945641 682.081147,67.261413 684.141735,66.070256 692.239762,64.527334 681.506453,374.281444"/>
    <poly id="1143843193" type="amenity.parking" color="184,184,179" fill="1" layer="-1.00" shape="385.396665,385.557778 385.180190,370.741217 391.026043,370.689854 390.969761,385.154673 385.396665,385.557778"/>
    <poly id="1143843195" type="amenity.parking" color="184,184,179" fill="1" layer="-1.00" shape="407.867050,360.006288 401.249971,360.673097 402.634277,369.680387 408.731307,368.752544 407.867050,360.006288"/>
    <poly id="1143843196" type="amenity.parking" color="184,184,179" fill="1" layer="-1.00" shape="410.483160,369.257293 442.544779,366.031872 442.441513,373.923415 411.144324,375.758770 410.483160,369.257293"/>
    <poly id="1143843197" type="amenity.prep_school" color="237,199,199" fill="1" layer="-1.00" shape="413.811041,358.847387 414.666730,364.163007 428.493513,361.529375 427.563785,356.380408 413.811041,358.847387"/>
    <poly id="1143846260" type="shop.tea" color="237,199,255" fill="1" layer="-1.00" shape="414.733443,420.868766 427.716198,420.389506 427.674104,415.597946 414.489530,416.433117 414.733443,420.868766"/>
    <poly id="1143846261" type="shop.pet" color="237,199,255" fill="1" layer="-1.00" shape="414.205677,411.134608 427.464782,410.188114 427.674104,415.597946 414.489530,416.433117 414.205677,411.134608"/>
    <poly id="1143846262" type="shop.hairdresser" color="237,199,255" fill="1" layer="-1.00" shape="413.962639,406.798552 427.388295,406.392870 427.209590,403.240398 413.794913,403.668118 413.962639,406.798552"/>
    <poly id="1150334207" type="building.guardhouse" color="255,230,230" fill="1" layer="-1.00" shape="677.228808,18.267024 678.453336,18.909223 678.974368,18.052509 677.728754,17.465829 677.228808,18.267024"/>
    <poly id="1162541485" type="man_made.bridge" color="255,230,230" fill="1" layer="-1.00" shape="655.611283,53.804013 652.789686,51.858879 676.025162,18.775589 679.302679,21.048730 682.547643,23.300023 673.023343,36.862928 659.312066,56.372240 655.611283,53.804013"/>
    <poly id="1164409512" type="amenity.motorcycle_parking" color="237,199,199" fill="1" layer="-1.00" shape="17.640541,315.739560 14.907995,307.983623 16.787614,307.070667 20.005519,314.822333 17.640541,315.739560"/>
    <poly id="1164409513" type="shop.bakery" color="237,199,255" fill="0" layer="-1.00" shape="-8.434300,314.098758 -13.629423,301.074548"/>
    <poly id="1164409514" type="amenity.fast_food" color="237,199,199" fill="1" layer="-1.00" shape="-0.305690,311.138768 -4.228551,299.276444 4.451989,296.521868 15.144064,305.391905 -0.305690,311.138768"/>
    <poly id="1164409516" type="amenity.parking" color="184,184,179" fill="1" layer="-1.00" shape="3.115155,321.113080 0.866405,313.175816 13.466405,308.416850 16.456349,316.004519 3.115155,321.113080"/>
    <poly id="1164409517" type="amenity.parking" color="184,184,179" fill="0" layer="-1.00" shape="-5.250226,325.358907 -7.946818,318.012128"/>
    <poly id="1166290528" type="amenity.fast_food" color="237,199,199" fill="0" layer="-1.00" shape="342.413187,434.751214 350.684841,435.796269 350.432996,437.823710"/>
    <poly id="1181941330" type="amenity.parking" color="184,184,179" fill="1" layer="-1.00" shape="73.276161,298.395198 75.802963,282.768732 94.367326,284.066227 95.787570,267.719089 99.823784,267.949186 97.115716,293.625924 73.276161,298.395198"/>
    <poly id="1189079400" type="building.yes" color="255,230,230" fill="1" layer="-1.00" shape="429.537731,186.919139 429.205184,173.619755 445.161825,166.618185 445.959801,178.873200 429.537731,186.919139"/>
    <poly id="1208005023" type="amenity.cafe" color="237,199,199" fill="1" layer="-1.00" shape="23.247042,298.293153 16.135988,291.859501 29.320386,277.511522 36.420751,283.956338 23.247042,298.293153"/>
    <poly id="1208005023#1" type="building.yes" color="255,230,230" fill="1" layer="-1.00" shape="23.247042,298.293153 16.135988,291.859501 29.320386,277.511522 36.420751,283.956338 23.247042,298.293153"/>
    <poly id="1219738411" type="amenity.fast_food" color="237,199,199" fill="1" layer="-1.00" shape="224.469481,279.734747 216.036576,279.985962 214.990045,261.557835 219.412209,261.518954 223.931444,261.479219 224.469481,279.734747"/>
    <poly id="1220083548" type="landuse.greenfield" color="242,242,204" fill="1" layer="-3.00" shape="128.234991,314.467684 54.502962,327.300949 99.237511,317.788285 128.234991,314.467684"/>
    <poly id="1220177127" type="amenity.parking" color="184,184,179" fill="1" layer="-1.00" shape="329.440477,188.440417 326.668432,188.453709 326.750285,179.356068 313.042221,179.554000 313.009837,175.869034 329.078339,175.462224 329.440477,188.440417"/>
    <poly id="1220475905" type="landuse.residential" color="235,235,227" fill="1" layer="-3.00" shape="345.108355,190.316900 330.310253,190.446934 329.880078,174.636235"/>
    <poly id="1220475906" type="amenity.hospital" color="237,199,199" fill="0" layer="-1.00" shape="362.279329,190.166027 345.108355,190.316900"/>
    <poly id="1220475907" type="landuse.residential" color="235,235,227" fill="1" layer="-3.00" shape="336.179341,169.711483 329.871303,169.955049 329.880078,174.636235"/>
    <poly id="1221239050" type="amenity.warehouse" color="237,199,199" fill="1" layer="-1.00" shape="367.413813,122.646556 372.409195,121.551322 371.428053,116.690544 370.028230,116.968446 366.410320,117.697440 367.413813,122.646556"/>
    <poly id="1221239050#1" type="shop.outpost" color="237,199,255" fill="1" layer="-1.00" shape="367.413813,122.646556 372.409195,121.551322 371.428053,116.690544 370.028230,116.968446 366.410320,117.697440 367.413813,122.646556"/>
    <poly id="1232955719" type="amenity.fast_food" color="237,199,199" fill="1" layer="-1.00" shape="403.918293,334.122505 412.569312,332.917689 411.672322,326.584286 403.032086,327.789007 403.918293,334.122505"/>
    <poly id="1232955719#1" type="building.commercial" color="255,230,230" fill="1" layer="-1.00" shape="403.918293,334.122505 412.569312,332.917689 411.672322,326.584286 403.032086,327.789007 403.918293,334.122505"/>
    <poly id="1237478282" type="amenity.restaurant" color="237,199,199" fill="1" layer="-1.00" shape="238.664116,261.272224 241.726397,261.145700 245.651345,260.989460 246.188394,279.134326 241.691998,279.317724 239.201170,279.417091 238.664116,261.272224"/>
    <poly id="1282131613" type="amenity.fast_food" color="237,199,199" fill="1" layer="-1.00" shape="366.947797,203.427319 349.658682,204.862979 347.413975,204.738834 347.428412,197.788748 364.646899,198.135465 365.692841,200.549907 366.947797,203.427319"/>
    <poly id="129120014" type="building.hotel" color="255,230,230" fill="1" layer="-1.00" shape="374.273930,215.934852 357.439084,216.281969 370.709507,241.165303 373.932111,239.642969 379.013069,237.241097 382.847935,235.425648 380.789872,230.762468 374.273930,215.934852"/>
    <poly id="1386903293" type="amenity.parking" color="184,184,179" fill="1" layer="-1.00" shape="25.358446,299.204186 38.060872,309.760832 47.764534,298.243402 38.148050,290.249234 40.827427,287.060542 37.730600,284.487087 25.358446,299.204186"/>
    <poly id="1386903294" type="amenity.motorcycle_parking" color="237,199,199" fill="1" layer="-1.00" shape="50.988443,305.452743 60.755522,302.367689 58.847889,296.419451 49.080808,299.504505 50.988443,305.452743"/>
    <poly id="1386903298" type="building.yes" color="255,230,230" fill="1" layer="-1.00" shape="145.279213,335.477539 172.638051,334.716772 172.120277,316.317192 144.772107,317.066797 145.279213,335.477539"/>
    <poly id="1556075" type="landuse.retail" color="194,194,130" fill="0" layer="-3.00" shape="356.557878,377.466805 348.676934,364.421883 397.722764,363.127718 398.781932,369.503963 399.123976,371.603652 400.866745,382.123947 401.611559,385.869053 402.487552,389.812209 403.325263,394.309041 404.798181,402.352741 406.569342,417.332711 407.162324,429.578463 406.907302,438.611223"/>
    <poly id="1556082" type="landuse.residential" color="235,235,227" fill="1" layer="-3.00" shape="356.557878,377.466805 348.676934,364.421883 345.088673,347.653989 393.394642,335.808582 391.951902,320.150650 390.938623,299.353944 377.786536,300.210974 268.121238,305.324816 132.648409,308.530242 132.090991,317.510344 126.479126,350.295391"/>
    <poly id="165933287" type="leisure.swimming_pool" color="207,245,201" fill="1" layer="-2.00" shape="173.398981,166.118049 178.623282,172.656870 173.884421,172.255869 172.591747,169.998537 173.398981,166.118049"/>
    <poly id="165933300" type="leisure.swimming_pool" color="207,245,201" fill="1" layer="-2.00" shape="188.202776,160.498729 186.673287,173.017690 180.801041,172.527052 173.178255,161.870329 173.923889,158.344522 188.202776,160.498729"/>
    <poly id="16640725" type="building.commercial" color="255,230,230" fill="1" layer="-1.00" shape="364.646899,198.135465 365.692841,200.549907 366.947797,203.427319 368.555286,207.142712 370.719436,206.692092 374.273930,215.934852 357.439084,216.281969 349.469173,216.440532 349.658682,204.862979 347.413975,204.738834 347.428412,197.788748 364.646899,198.135465"/>
    <poly id="16640726" type="amenity.parking" color="184,184,179" fill="1" layer="-1.00" shape="364.707887,191.572308 336.486052,192.340425 336.697229,196.732095 364.642809,196.442278 364.707887,191.572308"/>
    <poly id="16640727" type="amenity.hospital" color="237,199,199" fill="1" layer="-1.00" shape="362.279329,190.166027 364.727508,190.122383 364.707887,191.572308 364.642809,196.442278 364.646899,198.135465 347.428412,197.788748 346.728406,197.916634 347.484508,218.903738 336.923969,218.852666 270.965143,219.000753 270.513791,208.148170 270.255946,202.130087 269.140789,175.889393 329.880078,174.636235 330.310253,190.446934 345.108355,190.316900 362.279329,190.166027"/>
    <poly id="16640728" type="building.house" color="255,230,230" fill="1" layer="-1.00" shape="345.375323,181.416836 345.456308,172.219601 357.160161,172.260633 357.133489,181.501657 345.375323,181.416836"/>
    <poly id="16640729" type="building.commercial" color="255,230,230" fill="1" layer="-1.00" shape="351.777099,158.695750 351.766001,154.977398 349.544028,154.985854 349.541591,153.480789 349.537403,151.776536 330.736772,151.831067 330.755076,157.596717 332.372947,157.582500 332.373635,158.888378 332.391729,162.175063 334.689202,162.165942 334.705456,166.470790 336.172422,166.468967 336.179341,169.711483 354.839743,169.658187 354.828360,167.135053 354.816388,163.317107 353.047419,163.321583 353.039135,158.695728 351.777099,158.695750"/>
    <poly id="16640730" type="building.house" color="255,230,230" fill="1" layer="-1.00" shape="345.302365,184.162047 362.004693,183.461951 362.474821,187.862412 345.330473,188.588526 345.302365,184.162047"/>
    <poly id="16640731" type="landuse.residential" color="235,235,227" fill="1" layer="-3.00" shape="345.375323,181.416836 345.456308,172.219601 357.160161,172.260633 357.159661,169.748471 354.839743,169.658187 336.179341,169.711483 329.871303,169.955049 329.880078,174.636235 330.310253,190.446934 345.108355,190.316900 345.330473,188.588526 345.302365,184.162047 345.375323,181.416836"/>
    <poly id="16653828" type="landuse.residential" color="235,235,227" fill="1" layer="-3.00" shape="496.983536,60.054583 519.101407,54.504065 593.544752,74.689412 595.766305,82.007202 620.016367,74.822309"/>
    <poly id="16653829" type="landuse.residential" color="235,235,227" fill="1" layer="-3.00" shape="322.325467,23.197919 327.676508,55.211462 332.581145,70.794709 353.173741,127.364395 472.744852,98.016285 461.018123,75.720047 458.597330,69.056954 496.983536,60.054583"/>
    <poly id="16730391" type="shop.convenience" color="237,199,255" fill="1" layer="-1.00" shape="332.373635,158.888378 332.372947,157.582500 330.755076,157.596717 330.736772,151.831067 349.537403,151.776536 349.541591,153.480789 349.544028,154.985854 351.766001,154.977398 351.777099,158.695750 332.373635,158.888378"/>
    <poly id="180082941" type="landuse.retail" color="194,194,130" fill="0" layer="-3.00" shape="397.722764,363.127718 398.781932,369.503963 399.123976,371.603652 400.866745,382.123947 401.611559,385.869053 402.487552,389.812209 403.325263,394.309041"/>
    <poly id="182804109" type="amenity.fuel" color="237,199,199" fill="1" layer="-1.00" shape="402.532113,199.661853 410.777589,196.490714 420.646374,192.696644 417.865466,185.560845 407.588083,189.502373 399.751201,192.526055 402.532113,199.661853"/>
    <poly id="182804109#1" type="building.roof" color="255,230,230" fill="1" layer="-1.00" shape="402.532113,199.661853 410.777589,196.490714 420.646374,192.696644 417.865466,185.560845 407.588083,189.502373 399.751201,192.526055 402.532113,199.661853"/>
    <poly id="182804114" type="amenity.marketplace" color="237,199,199" fill="0" layer="-1.00" shape="498.067207,147.849093 526.130506,137.620444"/>
    <poly id="182804114#1" type="landuse.retail" color="194,194,130" fill="0" layer="-3.00" shape="498.067207,147.849093 526.130506,137.620444"/>
    <poly id="182804115" type="amenity.parking" color="184,184,179" fill="0" layer="-1.00" shape="452.710498,213.065682 451.892004,191.105257 450.873820,163.602115 450.632150,156.964152"/>
    <poly id="182804123" type="building.yes" color="255,230,230" fill="1" layer="-1.00" shape="400.791571,212.724913 400.511997,207.913307 407.609905,205.493723 407.961098,212.318861 400.791571,212.724913"/>
    <poly id="182804240" type="amenity.marketplace" color="237,199,199" fill="0" layer="-1.00" shape="476.663597,254.377980 567.849153,122.413640"/>
    <poly id="182804240#1" type="landuse.retail" color="194,194,130" fill="0" layer="-3.00" shape="476.663597,254.377980 567.849153,122.413640"/>
    <poly id="183532951" type="amenity.parking" color="184,184,179" fill="0" layer="-1.00" shape="403.325263,394.309041 404.798181,402.352741 406.569342,417.332711 407.162324,429.578463 406.907302,438.611223"/>
    <poly id="183535420" type="amenity.bank" color="237,199,199" fill="1" layer="-1.00" shape="420.415895,226.629509 428.178246,226.173987 427.773420,219.382521 420.075782,219.837475 419.886098,216.662966 402.313065,217.702679 402.896701,227.657683 420.415895,226.629509"/>
    <poly id="183535420#1" type="building.house" color="255,230,230" fill="1" layer="-1.00" shape="420.415895,226.629509 428.178246,226.173987 427.773420,219.382521 420.075782,219.837475 419.886098,216.662966 402.313065,217.702679 402.896701,227.657683 420.415895,226.629509"/>
    <poly id="183535421" type="building.house" color="255,230,230" fill="1" layer="-1.00" shape="402.695805,240.397347 418.863562,239.015839 417.830032,226.962094 401.651482,228.343697 402.695805,240.397347"/>
    <poly id="183535422" type="building.commercial" color="255,230,230" fill="1" layer="-1.00" shape="415.080557,427.229133 456.535070,424.994682 454.966593,396.245820 454.413482,386.080280 448.990415,386.371385 412.948118,388.314822 413.794913,403.668118 413.962639,406.798552 414.039311,408.159097 414.205677,411.134608 414.411691,414.939781 414.489530,416.433117 414.733443,420.868766 415.080557,427.229133"/>
    <poly id="183535431" type="building.house" color="255,230,230" fill="1" layer="-1.00" shape="357.291001,314.822187 376.121043,314.446463 375.970197,307.099424 357.140149,307.475148 357.291001,314.822187"/>
    <poly id="183535431#1" type="shop.car" color="237,199,255" fill="1" layer="-1.00" shape="357.291001,314.822187 376.121043,314.446463 375.970197,307.099424 357.140149,307.475148 357.291001,314.822187"/>
    <poly id="183543970" type="building.house" color="255,230,230" fill="1" layer="-1.00" shape="354.636308,121.950940 356.021092,126.099895 361.635440,124.246677 360.250657,120.097722 354.636308,121.950940"/>
    <poly id="183543970#1" type="shop.car_parts" color="237,199,255" fill="1" layer="-1.00" shape="354.636308,121.950940 356.021092,126.099895 361.635440,124.246677 360.250657,120.097722 354.636308,121.950940"/>
    <poly id="183543971" type="shop.hardware" color="237,199,255" fill="1" layer="-1.00" shape="285.179568,40.777510 285.694454,51.496731 300.315110,50.803834 299.800230,40.084614 285.179568,40.777510"/>
    <poly id="183543972" type="building.house" color="255,230,230" fill="1" layer="-1.00" shape="296.073564,79.991104 307.163529,77.680282 304.507211,65.087455 293.417240,67.398277 296.073564,79.991104"/>
    <poly id="183543972#1" type="shop.hardware" color="237,199,255" fill="1" layer="-1.00" shape="296.073564,79.991104 307.163529,77.680282 304.507211,65.087455 293.417240,67.398277 296.073564,79.991104"/>
    <poly id="183543983" type="building.house" color="255,230,230" fill="1" layer="-1.00" shape="352.341336,98.918931 355.144935,111.089927 365.436445,108.752945 362.632851,96.581949 352.341336,98.918931"/>
    <poly id="183543983#1" type="shop.motorcycle" color="237,199,255" fill="1" layer="-1.00" shape="352.341336,98.918931 355.144935,111.089927 365.436445,108.752945 362.632851,96.581949 352.341336,98.918931"/>
    <poly id="183543984" type="building.roof" color="255,230,230" fill="1" layer="-1.00" shape="269.130628,20.101875 302.780981,20.857494 303.000426,11.459839 269.339275,10.704313 269.130628,20.101875"/>
    <poly id="183543986" type="building.house" color="255,230,230" fill="1" layer="-1.00" shape="278.494231,84.007921 275.784134,67.752450 263.634332,69.751664 266.344438,86.007134 278.494231,84.007921"/>
    <poly id="183550880" type="amenity.place_of_worship" color="237,199,199" fill="1" layer="-1.00" shape="589.332503,381.298861 592.079000,369.776346 575.076768,365.786613 570.502461,368.150798 569.243828,373.451779 572.016813,377.234415 589.332503,381.298861"/>
    <poly id="183550880#1" type="building.house" color="255,230,230" fill="1" layer="-1.00" shape="589.332503,381.298861 592.079000,369.776346 575.076768,365.786613 570.502461,368.150798 569.243828,373.451779 572.016813,377.234415 589.332503,381.298861"/>
    <poly id="183550916" type="leisure.pitch" color="207,245,201" fill="1" layer="-2.00" shape="525.803701,5.784499 540.128396,3.323658 525.803701,5.784499"/>
    <poly id="183550916#1" type="sport.basketball" color="79,230,125" fill="1" layer="-2.00" shape="525.803701,5.784499 540.128396,3.323658 525.803701,5.784499"/>
    <poly id="2433909" type="building.retail" color="255,230,230" fill="1" layer="-1.00" shape="283.799462,265.434983 284.475067,219.579214 330.377206,220.160746 329.696946,265.496403 283.799462,265.434983"/>
    <poly id="2433909#1" type="shop.supermarket" color="237,199,255" fill="1" layer="-1.00" shape="283.799462,265.434983 284.475067,219.579214 330.377206,220.160746 329.696946,265.496403 283.799462,265.434983"/>
    <poly id="2433914" type="amenity.parking" color="184,184,179" fill="1" layer="-1.00" shape="450.632150,156.964152 450.873820,163.602115 451.892004,191.105257 452.710498,213.065682 498.067207,147.849093 491.363881,149.756109 481.821755,151.444585 450.632150,156.964152"/>
    <poly id="2433915" type="amenity.marketplace" color="237,199,199" fill="1" layer="-1.00" shape="567.849153,122.413640 526.130506,137.620444 498.067207,147.849093 452.710498,213.065682 463.123662,238.095882 460.294205,242.624922 476.663597,254.377980 567.849153,122.413640"/>
    <poly id="2433915#1" type="landuse.retail" color="194,194,130" fill="1" layer="-3.00" shape="567.849153,122.413640 526.130506,137.620444 498.067207,147.849093 452.710498,213.065682 463.123662,238.095882 460.294205,242.624922 476.663597,254.377980 567.849153,122.413640"/>
    <poly id="2443660" type="building.retail" color="255,230,230" fill="0" layer="-1.00" shape="350.432996,437.823710 350.684841,435.796269 355.447472,397.175495 332.013846,397.801971 309.745892,414.465112 309.022960,425.482951 300.307637,425.504224 300.115651,438.022485 296.217253,437.514478"/>
    <poly id="2443660#1" type="shop.mall" color="237,199,255" fill="0" layer="-1.00" shape="350.432996,437.823710 350.684841,435.796269 355.447472,397.175495 332.013846,397.801971 309.745892,414.465112 309.022960,425.482951 300.307637,425.504224 300.115651,438.022485 296.217253,437.514478"/>
    <poly id="2443661" type="amenity.parking" color="184,184,179" fill="0" layer="-1.00" shape="406.907302,438.611223 407.162324,429.578463 406.569342,417.332711 404.798181,402.352741 403.325263,394.309041 358.814538,394.910409 355.447472,397.175495 350.684841,435.796269 350.432996,437.823710"/>
    <poly id="2443909" type="landuse.residential" color="235,235,227" fill="1" layer="-3.00" shape="6.090723,102.771408 8.111607,89.716892 15.681665,91.918979 44.585062,43.546069 35.344407,39.045703 -1.141434,21.294608"/>
    <poly id="27274456" type="building.yes" color="255,230,230" fill="1" layer="-1.00" shape="218.092416,144.532106 195.953568,141.550576 189.831357,186.236910 212.024194,189.229021 218.092416,144.532106"/>