<?xml version="1.0" encoding="UTF-8"?>

<!-- generated on 2025-09-26 19:56:26.520218 by randomTrips.py v1_24_0+0000-b72eb3fabc8
<configuration>
    <net-file value="C:/Users/kgaqu/OneDrive/Documents/4th Year/Capstone 2/v10/backend/networks/jollibee_molino_area/jollibee_molino_area.net.xml"/>
    <output-trip-file value="C:/Users/kgaqu/AppData/Local/Temp/tmpt4ivnr_y.trips_3.xml"/>
    <vehicle-class value="motorcycle"/>
    <random-factor value="2.25"/>
    <fringe-factor value="2.0"/>
    <edge-permission value="motorcycle"/>
    <seed value="456"/>
    <random value="True"/>
    <min-distance value="300.0"/>
    <period value="445.13149193982485"/>
</configuration>
-->

<!-- generated on 2025-09-26 19:56:26 by Eclipse SUMO duarouter Version 1.24.0
<duarouterConfiguration xmlns:xsi="http://www.w3.org/2001/XMLSchema-instance" xsi:noNamespaceSchemaLocation="http://sumo.dlr.de/xsd/duarouterConfiguration.xsd">

    <input>
        <net-file value="C:/Users/kgaqu/OneDrive/Documents/4th Year/Capstone 2/v10/backend/networks/jollibee_molino_area/jollibee_molino_area.net.xml"/>
        <route-files value="C:/Users/kgaqu/AppData/Local/Temp/tmpt4ivnr_y.trips_3.xml"/>
    </input>

    <output>
        <output-file value="routes.rou.xml"/>
        <alternatives-output value="NUL"/>
    </output>

    <time>
        <begin value="0"/>
        <end value="3600"/>
    </time>

    <report>
        <no-warnings value="true"/>
        <ignore-errors value="true"/>
        <no-step-log value="true"/>
    </report>

</duarouterConfiguration>
-->

<routes xmlns:xsi="http://www.w3.org/2001/XMLSchema-instance" xsi:noNamespaceSchemaLocation="http://sumo.dlr.de/xsd/routes_file.xsd">
    <vType id="motorcycle" vClass="motorcycle"/>
    <vehicle id="0" type="motorcycle" depart="0.00">
        <route edges="130046557#0 -183543979#1 182804118#0"/>
    </vehicle>
    <vehicle id="1" type="motorcycle" depart="445.13">
        <route edges="282194769#0 109972547#0 109972547#2 158466193#0 -1019458712"/>
    </vehicle>
    <vehicle id="2" type="motorcycle" depart="890.26">
        <route edges="182804118#0 182804115#2 109972547#2 158466193#0 -158466193#0"/>
    </vehicle>
    <vehicle id="3" type="motorcycle" depart="1335.39">
        <route edges="-183532951#1 -183543979#1 -820090516#2 109972547#0 109972547#2 158466193#0 -1019458712"/>
    </vehicle>
    <vehicle id="4" type="motorcycle" depart="1780.53">
        <route edges="-182804112 -182804118#2 183543979#0 109971505"/>
    </vehicle>
    <vehicle id="5" type="motorcycle" depart="2225.66">
        <route edges="130046557#0 -183543979#1 182804118#0 182804115#2 -109972547#1"/>
    </vehicle>
    <vehicle id="6" type="motorcycle" depart="2670.79">
        <route edges="5031493 182804115#2 109972547#2 158466193#0 -1019458712"/>
    </vehicle>
    <vehicle id="7" type="motorcycle" depart="3115.92">
        <route edges="183543979#0 -183543979#1 -820090516#2 109972547#0 109972547#2 158466193#0 158466193#1"/>
    </vehicle>
    <vehicle id="8" type="motorcycle" depart="3561.05">
        <route edges="46753244 5031493 182804115#2 109972547#2 158466193#0 -158466193#0"/>
    </vehicle>
</routes>
