<?xml version="1.0" encoding="UTF-8"?>

<!-- generated on 2025-09-03 01:04:11 by Eclipse SUMO duarouter Version 1.24.0
<duarouterConfiguration xmlns:xsi="http://www.w3.org/2001/XMLSchema-instance" xsi:noNamespaceSchemaLocation="http://sumo.dlr.de/xsd/duarouterConfiguration.xsd">

    <input>
        <net-file value="C:\Users\kgaqu\OneDrive\Documents\4th Year\Capstone 2\v10\backend\networks\pag_asa_area\pag_asa_area.net.xml"/>
        <route-files value="C:\Users\kgaqu\OneDrive\Documents\4th Year\Capstone 2\v10\backend\networks\pag_asa_area\routes\osm.passenger.trips.xml"/>
    </input>

    <output>
        <output-file value="C:\Users\kgaqu\OneDrive\Documents\4th Year\Capstone 2\v10\backend\networks\pag_asa_area\routes\osm.passenger.rou.xml"/>
    </output>

    <report>
        <ignore-errors value="true"/>
    </report>

</duarouterConfiguration>
-->

<routes xmlns:xsi="http://www.w3.org/2001/XMLSchema-instance" xsi:noNamespaceSchemaLocation="http://sumo.dlr.de/xsd/routes_file.xsd">
    <vType id="veh_passenger" vClass="passenger"/>
    <vehicle id="veh0" type="veh_passenger" depart="0.00" departLane="best" departSpeed="max">
        <route edges="-1019458707 538760337#1 538760337#2 -282194769#1 -183541938#7"/>
    </vehicle>
    <vehicle id="veh1" type="veh_passenger" depart="29.10" departLane="best" departSpeed="max">
        <route edges="-282194769#5 -282194769#1"/>
    </vehicle>
    <vehicle id="veh2" type="veh_passenger" depart="58.20" departLane="best" departSpeed="max">
        <route edges="-1019458707 538760337#1 538760337#2 282194769#3"/>
    </vehicle>
    <vehicle id="veh3" type="veh_passenger" depart="87.31" departLane="best" departSpeed="max">
        <route edges="-1019458712 1155188968#2 538760337#0 538760337#1 538760337#2 5035715#0"/>
    </vehicle>
    <vehicle id="veh4" type="veh_passenger" depart="116.41" departLane="best">
        <route edges="538760337#0 538760337#1 538760337#2 -282194769#1 -690977716#1"/>
    </vehicle>
    <vehicle id="veh5" type="veh_passenger" depart="145.51" departLane="best" departSpeed="max">
        <route edges="690977719#0 183543973#0 282194769#3"/>
    </vehicle>
    <vehicle id="veh6" type="veh_passenger" depart="174.61" departLane="best" departSpeed="max">
        <route edges="-1019458712 1155188968#2 538760337#0 538760337#1 538760337#2 -282194769#1 -690977716#1"/>
    </vehicle>
    <vehicle id="veh7" type="veh_passenger" depart="203.72" departLane="best" departSpeed="max">
        <route edges="-1019458712 1155188968#2 538760337#0 538760337#1 538760337#2 -282194769#1"/>
    </vehicle>
    <vehicle id="veh8" type="veh_passenger" depart="232.82" departLane="best">
        <route edges="538760337#0 1019458708#1"/>
    </vehicle>
    <vehicle id="veh9" type="veh_passenger" depart="261.92" departLane="best" departSpeed="max">
        <route edges="109973440 183543973#0 5035715#0 5035715#1 5035715#2"/>
    </vehicle>
    <vehicle id="veh10" type="veh_passenger" depart="291.02" departLane="best">
        <route edges="538760337#0 538760337#1 538760337#2 282194769#3"/>
    </vehicle>
    <vehicle id="veh11" type="veh_passenger" depart="320.13" departLane="best" departSpeed="max">
        <route edges="690977719#0 183543973#0 282194769#3"/>
    </vehicle>
    <vehicle id="veh12" type="veh_passenger" depart="349.23" departLane="best">
        <route edges="538760337#2 282194769#3"/>
    </vehicle>
    <vehicle id="veh13" type="veh_passenger" depart="378.33" departLane="best">
        <route edges="183543973#0 -282194769#1 -183541938#7"/>
    </vehicle>
    <vehicle id="veh14" type="veh_passenger" depart="407.43" departLane="best" departSpeed="max">
        <route edges="-1019458707 5035715#2 158466203"/>
    </vehicle>
    <vehicle id="veh15" type="veh_passenger" depart="436.53" departLane="best">
        <route edges="5035715#0 936260755 538760337#2 -282194769#1 -690977716#1"/>
    </vehicle>
    <vehicle id="veh16" type="veh_passenger" depart="465.64" departLane="best" departSpeed="max">
        <route edges="109973440 183543973#0 5035715#0 5035715#1"/>
    </vehicle>
    <vehicle id="veh17" type="veh_passenger" depart="494.74" departLane="best" departSpeed="max">
        <route edges="690977719#0 183543973#0"/>
    </vehicle>
    <vehicle id="veh18" type="veh_passenger" depart="523.84" departLane="best" departSpeed="max">
        <route edges="-1019458707 538760337#1 538760337#2 5035715#0 5035715#1"/>
    </vehicle>
    <vehicle id="veh19" type="veh_passenger" depart="552.94" departLane="best">
        <route edges="5035715#1 5035715#2 158466203"/>
    </vehicle>
    <vehicle id="veh20" type="veh_passenger" depart="582.05" departLane="best" departSpeed="max">
        <route edges="-282194769#5 5035715#0 5035715#1 1019458708#1"/>
    </vehicle>
    <vehicle id="veh21" type="veh_passenger" depart="611.15" departLane="best">
        <route edges="-282194769#1 183543973#0 282194769#3"/>
    </vehicle>
    <vehicle id="veh22" type="veh_passenger" depart="640.25" departLane="best" departSpeed="max">
        <route edges="-1019458707 538760337#1"/>
    </vehicle>
    <vehicle id="veh23" type="veh_passenger" depart="669.35" departLane="best" departSpeed="max">
        <route edges="-1019458712 1155188968#2 538760337#0 538760337#1 538760337#2 282194769#3"/>
    </vehicle>
    <vehicle id="veh24" type="veh_passenger" depart="698.46" departLane="best">
        <route edges="1155188968#2 538760337#0 1019458708#1"/>
    </vehicle>
    <vehicle id="veh25" type="veh_passenger" depart="727.56" departLane="best" departSpeed="max">
        <route edges="-282194769#5 5035715#0 936260755 538760337#2"/>
    </vehicle>
    <vehicle id="veh26" type="veh_passenger" depart="756.66" departLane="best">
        <route edges="5035715#0 5035715#1 5035715#2 158466203"/>
    </vehicle>
    <vehicle id="veh27" type="veh_passenger" depart="785.76" departLane="best">
        <route edges="5035715#1 5035715#2 158466203"/>
    </vehicle>
    <vehicle id="veh28" type="veh_passenger" depart="814.86" departLane="best" departSpeed="max">
        <route edges="-1019458712 1155188968#2 538760337#0 538760337#1 538760337#2 -282194769#1 -183541938#7"/>
    </vehicle>
    <vehicle id="veh29" type="veh_passenger" depart="843.97" departLane="best" departSpeed="max">
        <route edges="690977719#0 183543973#0 5035715#0 5035715#1"/>
    </vehicle>
    <vehicle id="veh30" type="veh_passenger" depart="873.07" departLane="best" departSpeed="max">
        <route edges="-1019458712 1155188968#2 538760337#0 538760337#1 538760337#2 -282194769#1 183543973#0"/>
    </vehicle>
    <vehicle id="veh31" type="veh_passenger" depart="902.17" departLane="best" departSpeed="max">
        <route edges="-1019458707 538760337#1 538760337#2 -282194769#1 -690977716#1"/>
    </vehicle>
    <vehicle id="veh32" type="veh_passenger" depart="931.27" departLane="best" departSpeed="max">
        <route edges="109973440 183543973#0"/>
    </vehicle>
    <vehicle id="veh33" type="veh_passenger" depart="960.38" departLane="best" departSpeed="max">
        <route edges="-1019458707 538760337#1 538760337#2 282194769#3"/>
    </vehicle>
    <vehicle id="veh34" type="veh_passenger" depart="989.48" departLane="best" departSpeed="max">
        <route edges="690977719#0 183543973#0 5035715#0 5035715#1 1019458708#1"/>
    </vehicle>
    <vehicle id="veh35" type="veh_passenger" depart="1018.58" departLane="best" departSpeed="max">
        <route edges="109973440 183543973#0 5035715#0 5035715#1 1019458708#1"/>
    </vehicle>
    <vehicle id="veh36" type="veh_passenger" depart="1047.68" departLane="best" departSpeed="max">
        <route edges="-1019458707 538760337#1 538760337#2 -282194769#1 183543973#0"/>
    </vehicle>
    <vehicle id="veh37" type="veh_passenger" depart="1076.79" departLane="best" departSpeed="max">
        <route edges="690977719#0 183543973#0 282194769#3"/>
    </vehicle>
    <vehicle id="veh38" type="veh_passenger" depart="1105.89" departLane="best" departSpeed="max">
        <route edges="-282194769#5 5035715#0 5035715#1 1019458708#1"/>
    </vehicle>
    <vehicle id="veh39" type="veh_passenger" depart="1134.99" departLane="best" departSpeed="max">
        <route edges="1155188968#0 1155188968#2 538760337#0 538760337#1 538760337#2 282194769#3"/>
    </vehicle>
    <vehicle id="veh40" type="veh_passenger" depart="1164.09" departLane="best" departSpeed="max">
        <route edges="690977719#0 183543973#0 282194769#3"/>
    </vehicle>
    <vehicle id="veh41" type="veh_passenger" depart="1193.19" departLane="best" departSpeed="max">
        <route edges="690977719#0 183543973#0 282194769#3"/>
    </vehicle>
    <vehicle id="veh42" type="veh_passenger" depart="1222.30" departLane="best">
        <route edges="183543973#0 -282194769#1 -183541938#7"/>
    </vehicle>
    <vehicle id="veh43" type="veh_passenger" depart="1251.40" departLane="best" departSpeed="max">
        <route edges="-282194769#5 -282194769#1 -183541938#7"/>
    </vehicle>
    <vehicle id="veh44" type="veh_passenger" depart="1280.50" departLane="best">
        <route edges="5035715#0 5035715#1 1019458708#1"/>
    </vehicle>
    <vehicle id="veh45" type="veh_passenger" depart="1309.60" departLane="best" departSpeed="max">
        <route edges="690977719#0 183543973#0 5035715#0"/>
    </vehicle>
    <vehicle id="veh46" type="veh_passenger" depart="1338.71" departLane="best" departSpeed="max">
        <route edges="690977719#0 183543973#0 5035715#0 5035715#1 1019458708#1"/>
    </vehicle>
    <vehicle id="veh47" type="veh_passenger" depart="1367.81" departLane="best" departSpeed="max">
        <route edges="-1019458707 538760337#1 538760337#2 282194769#3"/>
    </vehicle>
    <vehicle id="veh48" type="veh_passenger" depart="1396.91" departLane="best" departSpeed="max">
        <route edges="690977719#0 183543973#0 5035715#0 5035715#1 5035715#2 158466203"/>
    </vehicle>
    <vehicle id="veh49" type="veh_passenger" depart="1426.01" departLane="best" departSpeed="max">
        <route edges="-282194769#5 5035715#0 5035715#1"/>
    </vehicle>
    <vehicle id="veh50" type="veh_passenger" depart="1455.12" departLane="best" departSpeed="max">
        <route edges="1155188968#0 1019458712"/>
    </vehicle>
    <vehicle id="veh51" type="veh_passenger" depart="1484.22" departLane="best">
        <route edges="538760337#0 538760337#1 538760337#2 282194769#3"/>
    </vehicle>
    <vehicle id="veh52" type="veh_passenger" depart="1513.32" departLane="best">
        <route edges="183543973#0 282194769#3"/>
    </vehicle>
    <vehicle id="veh53" type="veh_passenger" depart="1542.42" departLane="best" departSpeed="max">
        <route edges="109973440 183543973#0"/>
    </vehicle>
    <vehicle id="veh54" type="veh_passenger" depart="1571.52" departLane="best" departSpeed="max">
        <route edges="-1019458712 1155188968#2 538760337#0 538760337#1 538760337#2 282194769#3"/>
    </vehicle>
    <vehicle id="veh55" type="veh_passenger" depart="1600.63" departLane="best">
        <route edges="5035715#1 538760337#1 538760337#2 282194769#3"/>
    </vehicle>
    <vehicle id="veh56" type="veh_passenger" depart="1629.73" departLane="best">
        <route edges="5035715#1 538760337#1 538760337#2 -282194769#1 -690977716#1"/>
    </vehicle>
    <vehicle id="veh57" type="veh_passenger" depart="1658.83" departLane="best" departSpeed="max">
        <route edges="690977719#0 183543973#0 282194769#3"/>
    </vehicle>
    <vehicle id="veh58" type="veh_passenger" depart="1687.93" departLane="best">
        <route edges="5035715#0 936260755 538760337#2 -282194769#1 -690977716#1"/>
    </vehicle>
    <vehicle id="veh59" type="veh_passenger" depart="1717.04" departLane="best">
        <route edges="1155188968#2 538760337#0 1019458708#1"/>
    </vehicle>
    <vehicle id="veh60" type="veh_passenger" depart="1746.14" departLane="best" departSpeed="max">
        <route edges="-282194769#5 -282194769#1 -183541938#7"/>
    </vehicle>
    <vehicle id="veh61" type="veh_passenger" depart="1775.24" departLane="best" departSpeed="max">
        <route edges="-1019458712 1155188968#2 538760337#0 5035715#2 158466203"/>
    </vehicle>
    <vehicle id="veh62" type="veh_passenger" depart="1804.34" departLane="best" departSpeed="max">
        <route edges="690977719#0 -183541938#7"/>
    </vehicle>
    <vehicle id="veh63" type="veh_passenger" depart="1833.45" departLane="best" departSpeed="max">
        <route edges="109973440 183543973#0 5035715#0 5035715#1 1019458708#1"/>
    </vehicle>
    <vehicle id="veh64" type="veh_passenger" depart="1862.55" departLane="best" departSpeed="max">
        <route edges="109973440 183543973#0 282194769#3"/>
    </vehicle>
    <vehicle id="veh65" type="veh_passenger" depart="1891.65" departLane="best" departSpeed="max">
        <route edges="1155188968#0 1155188968#2 538760337#0 538760337#1 538760337#2 -282194769#1 -690977716#1"/>
    </vehicle>
    <vehicle id="veh66" type="veh_passenger" depart="1920.75" departLane="best" departSpeed="max">
        <route edges="690977719#0 183543973#0 5035715#0"/>
    </vehicle>
    <vehicle id="veh67" type="veh_passenger" depart="1949.85" departLane="best" departSpeed="max">
        <route edges="1155188968#0 1155188968#2 538760337#0 538760337#1 538760337#2 -282194769#1 -690977716#1"/>
    </vehicle>
    <vehicle id="veh68" type="veh_passenger" depart="1978.96" departLane="best" departSpeed="max">
        <route edges="-1019458712 1155188968#2 538760337#0"/>
    </vehicle>
    <vehicle id="veh69" type="veh_passenger" depart="2008.06" departLane="best" departSpeed="max">
        <route edges="109973440 183543973#0 -282194769#1"/>
    </vehicle>
    <vehicle id="veh70" type="veh_passenger" depart="2037.16" departLane="best" departSpeed="max">
        <route edges="690977719#0 183543973#0 5035715#0 5035715#1 5035715#2 158466203"/>
    </vehicle>
    <vehicle id="veh71" type="veh_passenger" depart="2066.26" departLane="best" departSpeed="max">
        <route edges="109973440 -690977716#1"/>
    </vehicle>
    <vehicle id="veh72" type="veh_passenger" depart="2095.37" departLane="best" departSpeed="max">
        <route edges="1155188968#0 1155188968#2 538760337#0 5035715#2"/>
    </vehicle>
    <vehicle id="veh73" type="veh_passenger" depart="2124.47" departLane="best" departSpeed="max">
        <route edges="-1019458712 1155188968#2 538760337#0 538760337#1 538760337#2"/>
    </vehicle>
    <vehicle id="veh74" type="veh_passenger" depart="2153.57" departLane="best" departSpeed="max">
        <route edges="1155188968#0 1155188968#2 538760337#0 538760337#1 538760337#2 282194769#3"/>
    </vehicle>
    <vehicle id="veh75" type="veh_passenger" depart="2182.67" departLane="best" departSpeed="max">
        <route edges="109973440 183543973#0 5035715#0 5035715#1 5035715#2"/>
    </vehicle>
    <vehicle id="veh76" type="veh_passenger" depart="2211.78" departLane="best">
        <route edges="5035715#0 936260755 538760337#2 -282194769#1 -183541938#7"/>
    </vehicle>
    <vehicle id="veh77" type="veh_passenger" depart="2240.88" departLane="best" departSpeed="max">
        <route edges="-1019458707 538760337#1 538760337#2 5035715#0 5035715#1"/>
    </vehicle>
    <vehicle id="veh78" type="veh_passenger" depart="2269.98" departLane="best">
        <route edges="183543973#0 282194769#3"/>
    </vehicle>
    <vehicle id="veh79" type="veh_passenger" depart="2299.08" departLane="best" departSpeed="max">
        <route edges="1155188968#0 1155188968#2 538760337#0 538760337#1 538760337#2 282194769#3"/>
    </vehicle>
    <vehicle id="veh80" type="veh_passenger" depart="2328.18" departLane="best" departSpeed="max">
        <route edges="-282194769#5 5035715#0 5035715#1 1019458708#1"/>
    </vehicle>
    <vehicle id="veh81" type="veh_passenger" depart="2357.29" departLane="best" departSpeed="max">
        <route edges="-282194769#5 -282194769#1 -690977716#1"/>
    </vehicle>
    <vehicle id="veh82" type="veh_passenger" depart="2386.39" departLane="best" departSpeed="max">
        <route edges="690977719#0 183543973#0 5035715#0 5035715#1 5035715#2"/>
    </vehicle>
    <vehicle id="veh83" type="veh_passenger" depart="2415.49" departLane="best" departSpeed="max">
        <route edges="1155188968#0 1155188968#2 538760337#0 538760337#1 538760337#2 -282194769#1 -183541938#7"/>
    </vehicle>
    <vehicle id="veh84" type="veh_passenger" depart="2444.59" departLane="best" departSpeed="max">
        <route edges="690977719#0 183543973#0 5035715#0"/>
    </vehicle>
    <vehicle id="veh85" type="veh_passenger" depart="2473.70" departLane="best" departSpeed="max">
        <route edges="109973440 -690977716#1"/>
    </vehicle>
    <vehicle id="veh86" type="veh_passenger" depart="2502.80" departLane="best" departSpeed="max">
        <route edges="-1019458712 1155188968#2 538760337#0 538760337#1 538760337#2 -282194769#1"/>
    </vehicle>
    <vehicle id="veh87" type="veh_passenger" depart="2531.90" departLane="best">
        <route edges="5035715#1 1019458708#1"/>
    </vehicle>
    <vehicle id="veh88" type="veh_passenger" depart="2561.00" departLane="best" departSpeed="max">
        <route edges="-282194769#5 -282194769#1"/>
    </vehicle>
    <vehicle id="veh89" type="veh_passenger" depart="2590.11" departLane="best" departSpeed="max">
        <route edges="690977719#0 183543973#0 5035715#0 5035715#1"/>
    </vehicle>
    <vehicle id="veh90" type="veh_passenger" depart="2619.21" departLane="best" departSpeed="max">
        <route edges="109973440 183543973#0 282194769#3"/>
    </vehicle>
    <vehicle id="veh91" type="veh_passenger" depart="2648.31" departLane="best" departSpeed="max">
        <route edges="690977719#0 183543973#0 282194769#3"/>
    </vehicle>
    <vehicle id="veh92" type="veh_passenger" depart="2677.41" departLane="best" departSpeed="max">
        <route edges="-1019458712 1155188968#2 538760337#0 538760337#1 538760337#2 -282194769#1"/>
    </vehicle>
    <vehicle id="veh93" type="veh_passenger" depart="2706.51" departLane="best" departSpeed="max">
        <route edges="-1019458707 538760337#1 538760337#2 -282194769#1 -690977716#1"/>
    </vehicle>
    <vehicle id="veh94" type="veh_passenger" depart="2735.62" departLane="best" departSpeed="max">
        <route edges="-1019458707 5035715#2 158466203"/>
    </vehicle>
    <vehicle id="veh95" type="veh_passenger" depart="2764.72" departLane="best">
        <route edges="5035715#0 936260755 538760337#2 -282194769#1 -690977716#1"/>
    </vehicle>
    <vehicle id="veh96" type="veh_passenger" depart="2793.82" departLane="best" departSpeed="max">
        <route edges="-1019458707 538760337#1 538760337#2 -282194769#1 -183541938#7"/>
    </vehicle>
    <vehicle id="veh97" type="veh_passenger" depart="2822.92" departLane="best" departSpeed="max">
        <route edges="109973440 183543973#0 5035715#0 5035715#1 538760337#1"/>
    </vehicle>
    <vehicle id="veh98" type="veh_passenger" depart="2852.03" departLane="best" departSpeed="max">
        <route edges="690977719#0 183543973#0 5035715#0 5035715#1 5035715#2 158466203"/>
    </vehicle>
    <vehicle id="veh99" type="veh_passenger" depart="2881.13" departLane="best">
        <route edges="5035715#0 5035715#1 1019458708#1"/>
    </vehicle>
    <vehicle id="veh100" type="veh_passenger" depart="2910.23" departLane="best">
        <route edges="5035715#0 936260755 538760337#2 -282194769#1 -183541938#7"/>
    </vehicle>
    <vehicle id="veh101" type="veh_passenger" depart="2939.33" departLane="best" departSpeed="max">
        <route edges="109973440 183543973#0 5035715#0 5035715#1 5035715#2 158466203"/>
    </vehicle>
    <vehicle id="veh102" type="veh_passenger" depart="2968.44" departLane="best" departSpeed="max">
        <route edges="690977719#0 183543973#0 282194769#3"/>
    </vehicle>
    <vehicle id="veh103" type="veh_passenger" depart="2997.54" departLane="best" departSpeed="max">
        <route edges="690977719#0 183543973#0 5035715#0 5035715#1 1019458708#1"/>
    </vehicle>
    <vehicle id="veh104" type="veh_passenger" depart="3026.64" departLane="best" departSpeed="max">
        <route edges="109973440 -690977716#1"/>
    </vehicle>
    <vehicle id="veh105" type="veh_passenger" depart="3055.74" departLane="best" departSpeed="max">
        <route edges="-282194769#5 -282194769#1 -690977716#1"/>
    </vehicle>
    <vehicle id="veh106" type="veh_passenger" depart="3084.84" departLane="best">
        <route edges="5035715#1 538760337#1 538760337#2 282194769#3"/>
    </vehicle>
    <vehicle id="veh107" type="veh_passenger" depart="3113.95" departLane="best" departSpeed="max">
        <route edges="690977719#0 183543973#0 282194769#3"/>
    </vehicle>
    <vehicle id="veh108" type="veh_passenger" depart="3143.05" departLane="best">
        <route edges="183543973#0 5035715#0 5035715#1 1019458708#1"/>
    </vehicle>
    <vehicle id="veh109" type="veh_passenger" depart="3172.15" departLane="best" departSpeed="max">
        <route edges="-282194769#5 -282194769#1 -183541938#7"/>
    </vehicle>
    <vehicle id="veh110" type="veh_passenger" depart="3201.25" departLane="best" departSpeed="max">
        <route edges="-282194769#5 5035715#0 5035715#1"/>
    </vehicle>
    <vehicle id="veh111" type="veh_passenger" depart="3230.36" departLane="best" departSpeed="max">
        <route edges="109973440 -690977716#1"/>
    </vehicle>
    <vehicle id="veh112" type="veh_passenger" depart="3259.46" departLane="best" departSpeed="max">
        <route edges="109973440 -690977716#1"/>
    </vehicle>
    <vehicle id="veh113" type="veh_passenger" depart="3288.56" departLane="best" departSpeed="max">
        <route edges="109973440 -690977716#1"/>
    </vehicle>
    <vehicle id="veh114" type="veh_passenger" depart="3317.66" departLane="best" departSpeed="max">
        <route edges="-1019458712 1155188968#2 538760337#0 538760337#1 538760337#2 5035715#0"/>
    </vehicle>
    <vehicle id="veh115" type="veh_passenger" depart="3346.77" departLane="best" departSpeed="max">
        <route edges="690977719#0 183543973#0 5035715#0 5035715#1 5035715#2 158466203"/>
    </vehicle>
    <vehicle id="veh116" type="veh_passenger" depart="3375.87" departLane="best" departSpeed="max">
        <route edges="1155188968#0 1155188968#2 538760337#0 538760337#1 538760337#2 -282194769#1 -183541938#7"/>
    </vehicle>
    <vehicle id="veh117" type="veh_passenger" depart="3404.97" departLane="best">
        <route edges="5035715#1 5035715#2 158466203"/>
    </vehicle>
    <vehicle id="veh118" type="veh_passenger" depart="3434.07" departLane="best" departSpeed="max">
        <route edges="-282194769#5 5035715#0 5035715#1"/>
    </vehicle>
    <vehicle id="veh119" type="veh_passenger" depart="3463.17" departLane="best">
        <route edges="538760337#0 538760337#1 538760337#2 282194769#3"/>
    </vehicle>
    <vehicle id="veh120" type="veh_passenger" depart="3492.28" departLane="best" departSpeed="max">
        <route edges="-282194769#5 5035715#0 5035715#1 5035715#2 158466203"/>
    </vehicle>
    <vehicle id="veh121" type="veh_passenger" depart="3521.38" departLane="best" departSpeed="max">
        <route edges="1155188968#0 1155188968#2 538760337#0 538760337#1 538760337#2 282194769#3"/>
    </vehicle>
    <vehicle id="veh122" type="veh_passenger" depart="3550.48" departLane="best">
        <route edges="1155188968#2 538760337#0 538760337#1 538760337#2 -282194769#1 -690977716#1"/>
    </vehicle>
    <vehicle id="veh123" type="veh_passenger" depart="3579.58" departLane="best" departSpeed="max">
        <route edges="690977719#0 183543973#0 5035715#0 5035715#1 5035715#2 158466203"/>
    </vehicle>
</routes>
