<?xml version="1.0" encoding="UTF-8"?>

<!-- generated on 2025-09-03 01:04:10 by Eclipse SUMO duarouter Version 1.24.0
<duarouterConfiguration xmlns:xsi="http://www.w3.org/2001/XMLSchema-instance" xsi:noNamespaceSchemaLocation="http://sumo.dlr.de/xsd/duarouterConfiguration.xsd">

    <input>
        <net-file value="C:\Users\kgaqu\OneDrive\Documents\4th Year\Capstone 2\v10\backend\networks\pag_asa_area\pag_asa_area.net.xml"/>
        <route-files value="C:\Users\kgaqu\OneDrive\Documents\4th Year\Capstone 2\v10\backend\networks\pag_asa_area\routes\osm.bus.trips.xml"/>
    </input>

    <output>
        <output-file value="C:\Users\kgaqu\OneDrive\Documents\4th Year\Capstone 2\v10\backend\networks\pag_asa_area\routes\osm.bus.rou.xml"/>
    </output>

    <report>
        <ignore-errors value="true"/>
    </report>

</duarouterConfiguration>
-->

<routes xmlns:xsi="http://www.w3.org/2001/XMLSchema-instance" xsi:noNamespaceSchemaLocation="http://sumo.dlr.de/xsd/routes_file.xsd">
    <vType id="bus_bus" vClass="bus"/>
    <vehicle id="bus0" type="bus_bus" depart="0.00" departLane="best" departSpeed="max">
        <route edges="-1019458707 538760337#1 538760337#2 -282194769#1 183543973#0"/>
    </vehicle>
    <vehicle id="bus1" type="bus_bus" depart="87.31" departLane="best">
        <route edges="1155188968#2 538760337#0 538760337#1 538760337#2 282194769#3"/>
    </vehicle>
    <vehicle id="bus2" type="bus_bus" depart="174.61" departLane="best" departSpeed="max">
        <route edges="1155188968#0 1155188968#2 538760337#0 538760337#1 538760337#2 282194769#3"/>
    </vehicle>
    <vehicle id="bus3" type="bus_bus" depart="261.92" departLane="best" departSpeed="max">
        <route edges="109973440 -690977716#1"/>
    </vehicle>
    <vehicle id="bus4" type="bus_bus" depart="349.23" departLane="best" departSpeed="max">
        <route edges="-282194769#5 -282194769#1 -183541938#7"/>
    </vehicle>
    <vehicle id="bus5" type="bus_bus" depart="436.53" departLane="best" departSpeed="max">
        <route edges="109973440 183543973#0 5035715#0 5035715#1 5035715#2 158466203"/>
    </vehicle>
    <vehicle id="bus6" type="bus_bus" depart="523.84" departLane="best" departSpeed="max">
        <route edges="-282194769#5 -282194769#1 -183541938#7"/>
    </vehicle>
    <vehicle id="bus7" type="bus_bus" depart="611.15" departLane="best">
        <route edges="538760337#1 538760337#2 5035715#0 5035715#1 1019458708#1"/>
    </vehicle>
    <vehicle id="bus8" type="bus_bus" depart="698.46" departLane="best" departSpeed="max">
        <route edges="-1019458707 538760337#1 538760337#2 5035715#0"/>
    </vehicle>
    <vehicle id="bus9" type="bus_bus" depart="785.76" departLane="best">
        <route edges="1155188968#2 538760337#0 538760337#1 538760337#2 -282194769#1 -183541938#7"/>
    </vehicle>
    <vehicle id="bus10" type="bus_bus" depart="873.07" departLane="best" departSpeed="max">
        <route edges="1155188968#0 1155188968#2 538760337#0 538760337#1 538760337#2 282194769#3"/>
    </vehicle>
    <vehicle id="bus11" type="bus_bus" depart="960.38" departLane="best" departSpeed="max">
        <route edges="109973440 183543973#0"/>
    </vehicle>
    <vehicle id="bus12" type="bus_bus" depart="1047.68" departLane="best" departSpeed="max">
        <route edges="1155188968#0 1155188968#2 538760337#0 1019458708#1"/>
    </vehicle>
    <vehicle id="bus13" type="bus_bus" depart="1134.99" departLane="best" departSpeed="max">
        <route edges="-1019458712 1155188968#2 538760337#0 5035715#2 158466203"/>
    </vehicle>
    <vehicle id="bus14" type="bus_bus" depart="1222.30" departLane="best">
        <route edges="183543973#0 -282194769#1 -183541938#7"/>
    </vehicle>
    <vehicle id="bus15" type="bus_bus" depart="1309.60" departLane="best" departSpeed="max">
        <route edges="690977719#0 183543973#0 5035715#0 5035715#1 5035715#2 158466203"/>
    </vehicle>
    <vehicle id="bus16" type="bus_bus" depart="1396.91" departLane="best" departSpeed="max">
        <route edges="-1019458707 538760337#1 538760337#2 -282194769#1 -183541938#7"/>
    </vehicle>
    <vehicle id="bus17" type="bus_bus" depart="1484.22" departLane="best" departSpeed="max">
        <route edges="-1019458707 5035715#2 158466203"/>
    </vehicle>
    <vehicle id="bus18" type="bus_bus" depart="1571.52" departLane="best" departSpeed="max">
        <route edges="-1019458707 5035715#2"/>
    </vehicle>
    <vehicle id="bus19" type="bus_bus" depart="1658.83" departLane="best" departSpeed="max">
        <route edges="690977719#0 -183541938#7"/>
    </vehicle>
    <vehicle id="bus20" type="bus_bus" depart="1746.14" departLane="best">
        <route edges="183543973#0 282194769#3"/>
    </vehicle>
    <vehicle id="bus21" type="bus_bus" depart="1833.45" departLane="best">
        <route edges="538760337#2 5035715#0 5035715#1 1019458708#1"/>
    </vehicle>
    <vehicle id="bus22" type="bus_bus" depart="1920.75" departLane="best">
        <route edges="183543973#0 -282194769#1 -183541938#7"/>
    </vehicle>
    <vehicle id="bus23" type="bus_bus" depart="2008.06" departLane="best" departSpeed="max">
        <route edges="-282194769#5 5035715#0 5035715#1 5035715#2 158466203"/>
    </vehicle>
    <vehicle id="bus24" type="bus_bus" depart="2095.37" departLane="best" departSpeed="max">
        <route edges="1155188968#0 1155188968#2 538760337#0 538760337#1 538760337#2 -282194769#1 -690977716#1"/>
    </vehicle>
    <vehicle id="bus25" type="bus_bus" depart="2182.67" departLane="best" departSpeed="max">
        <route edges="-282194769#5 5035715#0 5035715#1 1019458708#1"/>
    </vehicle>
    <vehicle id="bus26" type="bus_bus" depart="2269.98" departLane="best" departSpeed="max">
        <route edges="-1019458712 1155188968#2 538760337#0 538760337#1 538760337#2 -282194769#1 -690977716#1"/>
    </vehicle>
    <vehicle id="bus27" type="bus_bus" depart="2357.29" departLane="best" departSpeed="max">
        <route edges="690977719#0 183543973#0 5035715#0 5035715#1 5035715#2 158466203"/>
    </vehicle>
    <vehicle id="bus28" type="bus_bus" depart="2444.59" departLane="best" departSpeed="max">
        <route edges="-1019458712 1155188968#2 538760337#0 538760337#1 538760337#2 -282194769#1 -690977716#1"/>
    </vehicle>
    <vehicle id="bus29" type="bus_bus" depart="2531.90" departLane="best" departSpeed="max">
        <route edges="-1019458707 538760337#1 538760337#2 -282194769#1 -183541938#7"/>
    </vehicle>
    <vehicle id="bus30" type="bus_bus" depart="2619.21" departLane="best" departSpeed="max">
        <route edges="109973440 183543973#0 5035715#0 5035715#1 5035715#2"/>
    </vehicle>
    <vehicle id="bus31" type="bus_bus" depart="2706.51" departLane="best" departSpeed="max">
        <route edges="1155188968#0 1155188968#2 538760337#0 538760337#1 538760337#2 -282194769#1 -690977716#1"/>
    </vehicle>
    <vehicle id="bus32" type="bus_bus" depart="2793.82" departLane="best" departSpeed="max">
        <route edges="-1019458712 1155188968#2 538760337#0 538760337#1 538760337#2 -282194769#1 -183541938#7"/>
    </vehicle>
    <vehicle id="bus33" type="bus_bus" depart="2881.13" departLane="best">
        <route edges="183543973#0 -282194769#1 -183541938#7"/>
    </vehicle>
    <vehicle id="bus34" type="bus_bus" depart="2968.44" departLane="best" departSpeed="max">
        <route edges="1155188968#0 1155188968#2 538760337#0 538760337#1 538760337#2 -282194769#1 -690977716#1"/>
    </vehicle>
    <vehicle id="bus35" type="bus_bus" depart="3055.74" departLane="best" departSpeed="max">
        <route edges="-282194769#5 5035715#0 5035715#1 1019458708#1"/>
    </vehicle>
    <vehicle id="bus36" type="bus_bus" depart="3143.05" departLane="best" departSpeed="max">
        <route edges="1155188968#0 1155188968#2 538760337#0 538760337#1 538760337#2 -282194769#1 183543973#0"/>
    </vehicle>
    <vehicle id="bus37" type="bus_bus" depart="3230.36" departLane="best" departSpeed="max">
        <route edges="-1019458712 1155188968#2 538760337#0 538760337#1 538760337#2 -282194769#1 -183541938#7"/>
    </vehicle>
    <vehicle id="bus38" type="bus_bus" depart="3317.66" departLane="best">
        <route edges="-282194769#1 183543973#0 5035715#0 5035715#1 5035715#2 158466203"/>
    </vehicle>
    <vehicle id="bus39" type="bus_bus" depart="3404.97" departLane="best" departSpeed="max">
        <route edges="-1019458707 538760337#1 538760337#2 -282194769#1 183543973#0"/>
    </vehicle>
    <vehicle id="bus40" type="bus_bus" depart="3492.28" departLane="best" departSpeed="max">
        <route edges="-1019458712 1155188968#2 538760337#0 538760337#1 538760337#2 -282194769#1 -690977716#1"/>
    </vehicle>
    <vehicle id="bus41" type="bus_bus" depart="3579.58" departLane="best" departSpeed="max">
        <route edges="1155188968#0 1155188968#2 538760337#0 1019458708#1"/>
    </vehicle>
</routes>
