<?xml version="1.0" encoding="UTF-8"?>

<!-- generated on 2025-09-03 01:04:11 by Eclipse SUMO duarouter Version 1.24.0
<duarouterConfiguration xmlns:xsi="http://www.w3.org/2001/XMLSchema-instance" xsi:noNamespaceSchemaLocation="http://sumo.dlr.de/xsd/duarouterConfiguration.xsd">

    <input>
        <net-file value="C:\Users\kgaqu\OneDrive\Documents\4th Year\Capstone 2\v10\backend\networks\pag_asa_area\pag_asa_area.net.xml"/>
        <route-files value="C:\Users\kgaqu\OneDrive\Documents\4th Year\Capstone 2\v10\backend\networks\pag_asa_area\routes\osm.motorcycle.trips.xml"/>
    </input>

    <output>
        <output-file value="C:\Users\kgaqu\OneDrive\Documents\4th Year\Capstone 2\v10\backend\networks\pag_asa_area\routes\osm.motorcycle.rou.xml"/>
    </output>

    <report>
        <ignore-errors value="true"/>
    </report>

</duarouterConfiguration>
-->

<routes xmlns:xsi="http://www.w3.org/2001/XMLSchema-instance" xsi:noNamespaceSchemaLocation="http://sumo.dlr.de/xsd/routes_file.xsd">
    <vType id="motorcycle_motorcycle" vClass="motorcycle"/>
    <vehicle id="motorcycle0" type="motorcycle_motorcycle" depart="0.00" departLane="best" departSpeed="max">
        <route edges="109973440 183543973#0 5035715#0 5035715#1 5035715#2 158466203"/>
    </vehicle>
    <vehicle id="motorcycle1" type="motorcycle_motorcycle" depart="87.31" departLane="best">
        <route edges="538760337#2 -282194769#1 -690977716#1"/>
    </vehicle>
    <vehicle id="motorcycle2" type="motorcycle_motorcycle" depart="174.61" departLane="best">
        <route edges="-282194769#1 -183541938#7"/>
    </vehicle>
    <vehicle id="motorcycle3" type="motorcycle_motorcycle" depart="261.92" departLane="best" departSpeed="max">
        <route edges="-1019458712 1155188968#2 538760337#0 5035715#2 158466203"/>
    </vehicle>
    <vehicle id="motorcycle4" type="motorcycle_motorcycle" depart="349.23" departLane="best" departSpeed="max">
        <route edges="690977719#0 183543973#0 282194769#3"/>
    </vehicle>
    <vehicle id="motorcycle5" type="motorcycle_motorcycle" depart="436.53" departLane="best">
        <route edges="5035715#1 1019458708#1"/>
    </vehicle>
    <vehicle id="motorcycle6" type="motorcycle_motorcycle" depart="523.84" departLane="best" departSpeed="max">
        <route edges="-1019458707 5035715#2"/>
    </vehicle>
    <vehicle id="motorcycle7" type="motorcycle_motorcycle" depart="611.15" departLane="best">
        <route edges="183543973#0 -282194769#1"/>
    </vehicle>
    <vehicle id="motorcycle8" type="motorcycle_motorcycle" depart="698.46" departLane="best" departSpeed="max">
        <route edges="-1019458707 538760337#1 538760337#2 -282194769#1 -183541938#7"/>
    </vehicle>
    <vehicle id="motorcycle9" type="motorcycle_motorcycle" depart="785.76" departLane="best" departSpeed="max">
        <route edges="690977719#0 183543973#0 -282194769#1"/>
    </vehicle>
    <vehicle id="motorcycle10" type="motorcycle_motorcycle" depart="873.07" departLane="best">
        <route edges="5035715#0 936260755 538760337#2"/>
    </vehicle>
    <vehicle id="motorcycle11" type="motorcycle_motorcycle" depart="960.38" departLane="best" departSpeed="max">
        <route edges="1155188968#0 1155188968#2 538760337#0 538760337#1"/>
    </vehicle>
    <vehicle id="motorcycle12" type="motorcycle_motorcycle" depart="1047.68" departLane="best" departSpeed="max">
        <route edges="-282194769#5 -282194769#1 -183541938#7"/>
    </vehicle>
    <vehicle id="motorcycle13" type="motorcycle_motorcycle" depart="1134.99" departLane="best">
        <route edges="5035715#1 5035715#2"/>
    </vehicle>
    <vehicle id="motorcycle14" type="motorcycle_motorcycle" depart="1222.30" departLane="best" departSpeed="max">
        <route edges="1155188968#0 1155188968#2 538760337#0 538760337#1 538760337#2 -282194769#1 -183541938#7"/>
    </vehicle>
    <vehicle id="motorcycle15" type="motorcycle_motorcycle" depart="1309.60" departLane="best">
        <route edges="5035715#1 538760337#1 538760337#2 5035715#0"/>
    </vehicle>
    <vehicle id="motorcycle16" type="motorcycle_motorcycle" depart="1396.91" departLane="best">
        <route edges="5035715#0 5035715#1 1019458708#1"/>
    </vehicle>
    <vehicle id="motorcycle17" type="motorcycle_motorcycle" depart="1484.22" departLane="best">
        <route edges="538760337#1 538760337#2 282194769#3"/>
    </vehicle>
    <vehicle id="motorcycle18" type="motorcycle_motorcycle" depart="1571.52" departLane="best">
        <route edges="183543973#0 5035715#0 5035715#1 5035715#2 158466203"/>
    </vehicle>
    <vehicle id="motorcycle19" type="motorcycle_motorcycle" depart="1658.83" departLane="best">
        <route edges="538760337#0 538760337#1 538760337#2 282194769#3"/>
    </vehicle>
    <vehicle id="motorcycle20" type="motorcycle_motorcycle" depart="1746.14" departLane="best" departSpeed="max">
        <route edges="109973440 183543973#0 5035715#0 5035715#1 5035715#2"/>
    </vehicle>
    <vehicle id="motorcycle21" type="motorcycle_motorcycle" depart="1833.45" departLane="best">
        <route edges="538760337#1 538760337#2 -282194769#1 -183541938#7"/>
    </vehicle>
    <vehicle id="motorcycle22" type="motorcycle_motorcycle" depart="1920.75" departLane="best" departSpeed="max">
        <route edges="-1019458712 1155188968#2 538760337#0 538760337#1 538760337#2 -282194769#1 -690977716#1"/>
    </vehicle>
    <vehicle id="motorcycle23" type="motorcycle_motorcycle" depart="2008.06" departLane="best" departSpeed="max">
        <route edges="-1019458707 538760337#1 538760337#2 5035715#0"/>
    </vehicle>
    <vehicle id="motorcycle24" type="motorcycle_motorcycle" depart="2095.37" departLane="best">
        <route edges="5035715#0 5035715#1 5035715#2 158466203"/>
    </vehicle>
    <vehicle id="motorcycle25" type="motorcycle_motorcycle" depart="2182.67" departLane="best">
        <route edges="-282194769#1"/>
    </vehicle>
    <vehicle id="motorcycle26" type="motorcycle_motorcycle" depart="2269.98" departLane="best" departSpeed="max">
        <route edges="109973440 183543973#0 5035715#0 5035715#1 5035715#2"/>
    </vehicle>
    <vehicle id="motorcycle27" type="motorcycle_motorcycle" depart="2357.29" departLane="best">
        <route edges="183543973#0 -282194769#1 -183541938#7"/>
    </vehicle>
    <vehicle id="motorcycle28" type="motorcycle_motorcycle" depart="2444.59" departLane="best" departSpeed="max">
        <route edges="1155188968#0 1155188968#2 538760337#0 538760337#1 538760337#2 -282194769#1 -183541938#7"/>
    </vehicle>
    <vehicle id="motorcycle29" type="motorcycle_motorcycle" depart="2531.90" departLane="best">
        <route edges="5035715#0 936260755 538760337#2 -282194769#1"/>
    </vehicle>
    <vehicle id="motorcycle30" type="motorcycle_motorcycle" depart="2619.21" departLane="best" departSpeed="max">
        <route edges="-1019458712 1155188968#2 538760337#0 538760337#1 538760337#2 282194769#3"/>
    </vehicle>
    <vehicle id="motorcycle31" type="motorcycle_motorcycle" depart="2706.51" departLane="best">
        <route edges="538760337#1 538760337#2 282194769#3"/>
    </vehicle>
    <vehicle id="motorcycle32" type="motorcycle_motorcycle" depart="2793.82" departLane="best" departSpeed="max">
        <route edges="-282194769#5 282194769#3"/>
    </vehicle>
    <vehicle id="motorcycle33" type="motorcycle_motorcycle" depart="2881.13" departLane="best" departSpeed="max">
        <route edges="-282194769#5 -282194769#1 -183541938#7"/>
    </vehicle>
    <vehicle id="motorcycle34" type="motorcycle_motorcycle" depart="2968.44" departLane="best" departSpeed="max">
        <route edges="-282194769#5 282194769#3"/>
    </vehicle>
    <vehicle id="motorcycle35" type="motorcycle_motorcycle" depart="3055.74" departLane="best">
        <route edges="5035715#0 936260755 538760337#2 -282194769#1 -690977716#1"/>
    </vehicle>
    <vehicle id="motorcycle36" type="motorcycle_motorcycle" depart="3143.05" departLane="best">
        <route edges="538760337#1 538760337#2 5035715#0 5035715#1 5035715#2"/>
    </vehicle>
    <vehicle id="motorcycle37" type="motorcycle_motorcycle" depart="3230.36" departLane="best" departSpeed="max">
        <route edges="-282194769#5 5035715#0 936260755 538760337#2"/>
    </vehicle>
    <vehicle id="motorcycle38" type="motorcycle_motorcycle" depart="3317.66" departLane="best" departSpeed="max">
        <route edges="-282194769#5 -282194769#1 -183541938#7"/>
    </vehicle>
    <vehicle id="motorcycle39" type="motorcycle_motorcycle" depart="3404.97" departLane="best" departSpeed="max">
        <route edges="1155188968#0 1155188968#2 538760337#0"/>
    </vehicle>
    <vehicle id="motorcycle40" type="motorcycle_motorcycle" depart="3492.28" departLane="best">
        <route edges="183543973#0 5035715#0 5035715#1 5035715#2 158466203"/>
    </vehicle>
    <vehicle id="motorcycle41" type="motorcycle_motorcycle" depart="3579.58" departLane="best" departSpeed="max">
        <route edges="1155188968#0 1155188968#2 538760337#0 1019458708#1"/>
    </vehicle>
</routes>
