<?xml version="1.0" encoding="UTF-8"?>

<!-- generated on 2025-09-03 00:53:45.186913 by osmWebWizard.py v1_24_0+0000-b72eb3fabc8
<configuration>
    <net-file value="C:\Users\kgaqu\OneDrive\Documents\4th Year\Capstone 2\v10\osm_importer\osm_scenarios\2025-09-03-00-53-39\osm.net.xml.gz"/>
    <output-trip-file value="C:\Users\kgaqu\OneDrive\Documents\4th Year\Capstone 2\v10\osm_importer\osm_scenarios\2025-09-03-00-53-39\osm.motorcycle.trips.xml"/>
    <route-file value="C:\Users\kgaqu\OneDrive\Documents\4th Year\Capstone 2\v10\osm_importer\osm_scenarios\2025-09-03-00-53-39\osm.motorcycle.rou.xml"/>
    <prefix value="motorcycle"/>
    <trip-attributes value="departLane=&quot;best&quot;"/>
    <fringe-start-attributes value="departSpeed=&quot;max&quot;"/>
    <vehicle-class value="motorcycle"/>
    <fringe-factor value="2"/>
    <edge-permission value="motorcycle"/>
    <via-edge-types value="highway.motorway,highway.motorway_link,highway.trunk_link,highway.primary_link,highway.secondary_link,highway.tertiary_link"/>
    <seed value="44"/>
    <max-distance value="1200.0"/>
    <remove-loops value="True"/>
    <insertion-density value="4.0"/>
</configuration>
-->

<routes xmlns:xsi="http://www.w3.org/2001/XMLSchema-instance" xsi:noNamespaceSchemaLocation="http://sumo.dlr.de/xsd/routes_file.xsd">
    <vType id="motorcycle_motorcycle" vClass="motorcycle"/>
    <trip id="motorcycle0" depart="0.00" from="109973440" to="158466203" departLane="best" type="motorcycle_motorcycle" departSpeed="max"/>
    <trip id="motorcycle1" depart="87.31" from="538760337#2" to="-690977716#1" departLane="best" type="motorcycle_motorcycle"/>
    <trip id="motorcycle2" depart="174.61" from="-282194769#1" to="-183541938#7" departLane="best" type="motorcycle_motorcycle"/>
    <trip id="motorcycle3" depart="261.92" from="-1019458712" to="158466203" departLane="best" type="motorcycle_motorcycle" departSpeed="max"/>
    <trip id="motorcycle4" depart="349.23" from="690977719#0" to="282194769#3" departLane="best" type="motorcycle_motorcycle" departSpeed="max"/>
    <trip id="motorcycle5" depart="436.53" from="5035715#1" to="1019458708#1" departLane="best" type="motorcycle_motorcycle"/>
    <trip id="motorcycle6" depart="523.84" from="-1019458707" to="5035715#2" departLane="best" type="motorcycle_motorcycle" departSpeed="max"/>
    <trip id="motorcycle7" depart="611.15" from="183543973#0" to="-282194769#1" departLane="best" type="motorcycle_motorcycle"/>
    <trip id="motorcycle8" depart="698.46" from="-1019458707" to="-183541938#7" departLane="best" type="motorcycle_motorcycle" departSpeed="max"/>
    <trip id="motorcycle9" depart="785.76" from="690977719#0" to="-282194769#1" departLane="best" type="motorcycle_motorcycle" departSpeed="max"/>
    <trip id="motorcycle10" depart="873.07" from="5035715#0" to="538760337#2" departLane="best" type="motorcycle_motorcycle"/>
    <trip id="motorcycle11" depart="960.38" from="1155188968#0" to="538760337#1" departLane="best" type="motorcycle_motorcycle" departSpeed="max"/>
    <trip id="motorcycle12" depart="1047.68" from="-282194769#5" to="-183541938#7" departLane="best" type="motorcycle_motorcycle" departSpeed="max"/>
    <trip id="motorcycle13" depart="1134.99" from="5035715#1" to="5035715#2" departLane="best" type="motorcycle_motorcycle"/>
    <trip id="motorcycle14" depart="1222.30" from="1155188968#0" to="-183541938#7" departLane="best" type="motorcycle_motorcycle" departSpeed="max"/>
    <trip id="motorcycle15" depart="1309.60" from="5035715#1" to="5035715#0" departLane="best" type="motorcycle_motorcycle"/>
    <trip id="motorcycle16" depart="1396.91" from="5035715#0" to="1019458708#1" departLane="best" type="motorcycle_motorcycle"/>
    <trip id="motorcycle17" depart="1484.22" from="538760337#1" to="282194769#3" departLane="best" type="motorcycle_motorcycle"/>
    <trip id="motorcycle18" depart="1571.52" from="183543973#0" to="158466203" departLane="best" type="motorcycle_motorcycle"/>
    <trip id="motorcycle19" depart="1658.83" from="538760337#0" to="282194769#3" departLane="best" type="motorcycle_motorcycle"/>
    <trip id="motorcycle20" depart="1746.14" from="109973440" to="5035715#2" departLane="best" type="motorcycle_motorcycle" departSpeed="max"/>
    <trip id="motorcycle21" depart="1833.45" from="538760337#1" to="-183541938#7" departLane="best" type="motorcycle_motorcycle"/>
    <trip id="motorcycle22" depart="1920.75" from="-1019458712" to="-690977716#1" departLane="best" type="motorcycle_motorcycle" departSpeed="max"/>
    <trip id="motorcycle23" depart="2008.06" from="-1019458707" to="5035715#0" departLane="best" type="motorcycle_motorcycle" departSpeed="max"/>
    <trip id="motorcycle24" depart="2095.37" from="5035715#0" to="158466203" departLane="best" type="motorcycle_motorcycle"/>
    <trip id="motorcycle25" depart="2182.67" from="-282194769#1" to="-282194769#1" departLane="best" type="motorcycle_motorcycle"/>
    <trip id="motorcycle26" depart="2269.98" from="109973440" to="5035715#2" departLane="best" type="motorcycle_motorcycle" departSpeed="max"/>
    <trip id="motorcycle27" depart="2357.29" from="183543973#0" to="-183541938#7" departLane="best" type="motorcycle_motorcycle"/>
    <trip id="motorcycle28" depart="2444.59" from="1155188968#0" to="-183541938#7" departLane="best" type="motorcycle_motorcycle" departSpeed="max"/>
    <trip id="motorcycle29" depart="2531.90" from="5035715#0" to="-282194769#1" departLane="best" type="motorcycle_motorcycle"/>
    <trip id="motorcycle30" depart="2619.21" from="-1019458712" to="282194769#3" departLane="best" type="motorcycle_motorcycle" departSpeed="max"/>
    <trip id="motorcycle31" depart="2706.51" from="538760337#1" to="282194769#3" departLane="best" type="motorcycle_motorcycle"/>
    <trip id="motorcycle32" depart="2793.82" from="-282194769#5" to="282194769#3" departLane="best" type="motorcycle_motorcycle" departSpeed="max"/>
    <trip id="motorcycle33" depart="2881.13" from="-282194769#5" to="-183541938#7" departLane="best" type="motorcycle_motorcycle" departSpeed="max"/>
    <trip id="motorcycle34" depart="2968.44" from="-282194769#5" to="282194769#3" departLane="best" type="motorcycle_motorcycle" departSpeed="max"/>
    <trip id="motorcycle35" depart="3055.74" from="5035715#0" to="-690977716#1" departLane="best" type="motorcycle_motorcycle"/>
    <trip id="motorcycle36" depart="3143.05" from="538760337#1" to="5035715#2" departLane="best" type="motorcycle_motorcycle"/>
    <trip id="motorcycle37" depart="3230.36" from="-282194769#5" to="538760337#2" departLane="best" type="motorcycle_motorcycle" departSpeed="max"/>
    <trip id="motorcycle38" depart="3317.66" from="-282194769#5" to="-183541938#7" departLane="best" type="motorcycle_motorcycle" departSpeed="max"/>
    <trip id="motorcycle39" depart="3404.97" from="1155188968#0" to="538760337#0" departLane="best" type="motorcycle_motorcycle" departSpeed="max"/>
    <trip id="motorcycle40" depart="3492.28" from="183543973#0" to="158466203" departLane="best" type="motorcycle_motorcycle"/>
    <trip id="motorcycle41" depart="3579.58" from="1155188968#0" to="1019458708#1" departLane="best" type="motorcycle_motorcycle" departSpeed="max"/>
</routes>
