<?xml version="1.0" encoding="UTF-8"?>

<!-- generated on 2025-09-03 00:53:44.643669 by osmWebWizard.py v1_24_0+0000-b72eb3fabc8
<configuration>
    <net-file value="C:\Users\kgaqu\OneDrive\Documents\4th Year\Capstone 2\v10\osm_importer\osm_scenarios\2025-09-03-00-53-39\osm.net.xml.gz"/>
    <output-trip-file value="C:\Users\kgaqu\OneDrive\Documents\4th Year\Capstone 2\v10\osm_importer\osm_scenarios\2025-09-03-00-53-39\osm.bus.trips.xml"/>
    <route-file value="C:\Users\kgaqu\OneDrive\Documents\4th Year\Capstone 2\v10\osm_importer\osm_scenarios\2025-09-03-00-53-39\osm.bus.rou.xml"/>
    <prefix value="bus"/>
    <trip-attributes value="departLane=&quot;best&quot;"/>
    <fringe-start-attributes value="departSpeed=&quot;max&quot;"/>
    <vehicle-class value="bus"/>
    <fringe-factor value="5"/>
    <edge-permission value="bus"/>
    <via-edge-types value="highway.motorway,highway.motorway_link,highway.trunk_link,highway.primary_link,highway.secondary_link,highway.tertiary_link"/>
    <seed value="43"/>
    <min-distance value="600.0"/>
    <min-distance.fringe value="10.0"/>
    <remove-loops value="True"/>
    <insertion-density value="4.0"/>
</configuration>
-->

<routes xmlns:xsi="http://www.w3.org/2001/XMLSchema-instance" xsi:noNamespaceSchemaLocation="http://sumo.dlr.de/xsd/routes_file.xsd">
    <vType id="bus_bus" vClass="bus"/>
    <trip id="bus0" depart="0.00" from="-1019458707" to="183543973#0" departLane="best" type="bus_bus" departSpeed="max"/>
    <trip id="bus1" depart="87.31" from="1155188968#2" to="282194769#3" departLane="best" type="bus_bus"/>
    <trip id="bus2" depart="174.61" from="1155188968#0" to="282194769#3" departLane="best" type="bus_bus" departSpeed="max"/>
    <trip id="bus3" depart="261.92" from="109973440" to="-690977716#1" departLane="best" type="bus_bus" departSpeed="max"/>
    <trip id="bus4" depart="349.23" from="-282194769#5" to="-183541938#7" departLane="best" type="bus_bus" departSpeed="max"/>
    <trip id="bus5" depart="436.53" from="109973440" to="158466203" departLane="best" type="bus_bus" departSpeed="max"/>
    <trip id="bus6" depart="523.84" from="-282194769#5" to="-183541938#7" departLane="best" type="bus_bus" departSpeed="max"/>
    <trip id="bus7" depart="611.15" from="538760337#1" to="1019458708#1" departLane="best" type="bus_bus"/>
    <trip id="bus8" depart="698.46" from="-1019458707" to="5035715#0" departLane="best" type="bus_bus" departSpeed="max"/>
    <trip id="bus9" depart="785.76" from="1155188968#2" to="-183541938#7" departLane="best" type="bus_bus"/>
    <trip id="bus10" depart="873.07" from="1155188968#0" to="282194769#3" departLane="best" type="bus_bus" departSpeed="max"/>
    <trip id="bus11" depart="960.38" from="109973440" to="183543973#0" departLane="best" type="bus_bus" departSpeed="max"/>
    <trip id="bus12" depart="1047.68" from="1155188968#0" to="1019458708#1" departLane="best" type="bus_bus" departSpeed="max"/>
    <trip id="bus13" depart="1134.99" from="-1019458712" to="158466203" departLane="best" type="bus_bus" departSpeed="max"/>
    <trip id="bus14" depart="1222.30" from="183543973#0" to="-183541938#7" departLane="best" type="bus_bus"/>
    <trip id="bus15" depart="1309.60" from="690977719#0" to="158466203" departLane="best" type="bus_bus" departSpeed="max"/>
    <trip id="bus16" depart="1396.91" from="-1019458707" to="-183541938#7" departLane="best" type="bus_bus" departSpeed="max"/>
    <trip id="bus17" depart="1484.22" from="-1019458707" to="158466203" departLane="best" type="bus_bus" departSpeed="max"/>
    <trip id="bus18" depart="1571.52" from="-1019458707" to="5035715#2" departLane="best" type="bus_bus" departSpeed="max"/>
    <trip id="bus19" depart="1658.83" from="690977719#0" to="-183541938#7" departLane="best" type="bus_bus" departSpeed="max"/>
    <trip id="bus20" depart="1746.14" from="183543973#0" to="282194769#3" departLane="best" type="bus_bus"/>
    <trip id="bus21" depart="1833.45" from="538760337#2" to="1019458708#1" departLane="best" type="bus_bus"/>
    <trip id="bus22" depart="1920.75" from="183543973#0" to="-183541938#7" departLane="best" type="bus_bus"/>
    <trip id="bus23" depart="2008.06" from="-282194769#5" to="158466203" departLane="best" type="bus_bus" departSpeed="max"/>
    <trip id="bus24" depart="2095.37" from="1155188968#0" to="-690977716#1" departLane="best" type="bus_bus" departSpeed="max"/>
    <trip id="bus25" depart="2182.67" from="-282194769#5" to="1019458708#1" departLane="best" type="bus_bus" departSpeed="max"/>
    <trip id="bus26" depart="2269.98" from="-1019458712" to="-690977716#1" departLane="best" type="bus_bus" departSpeed="max"/>
    <trip id="bus27" depart="2357.29" from="690977719#0" to="158466203" departLane="best" type="bus_bus" departSpeed="max"/>
    <trip id="bus28" depart="2444.59" from="-1019458712" to="-690977716#1" departLane="best" type="bus_bus" departSpeed="max"/>
    <trip id="bus29" depart="2531.90" from="-1019458707" to="-183541938#7" departLane="best" type="bus_bus" departSpeed="max"/>
    <trip id="bus30" depart="2619.21" from="109973440" to="5035715#2" departLane="best" type="bus_bus" departSpeed="max"/>
    <trip id="bus31" depart="2706.51" from="1155188968#0" to="-690977716#1" departLane="best" type="bus_bus" departSpeed="max"/>
    <trip id="bus32" depart="2793.82" from="-1019458712" to="-183541938#7" departLane="best" type="bus_bus" departSpeed="max"/>
    <trip id="bus33" depart="2881.13" from="183543973#0" to="-183541938#7" departLane="best" type="bus_bus"/>
    <trip id="bus34" depart="2968.44" from="1155188968#0" to="-690977716#1" departLane="best" type="bus_bus" departSpeed="max"/>
    <trip id="bus35" depart="3055.74" from="-282194769#5" to="1019458708#1" departLane="best" type="bus_bus" departSpeed="max"/>
    <trip id="bus36" depart="3143.05" from="1155188968#0" to="183543973#0" departLane="best" type="bus_bus" departSpeed="max"/>
    <trip id="bus37" depart="3230.36" from="-1019458712" to="-183541938#7" departLane="best" type="bus_bus" departSpeed="max"/>
    <trip id="bus38" depart="3317.66" from="-282194769#1" to="158466203" departLane="best" type="bus_bus"/>
    <trip id="bus39" depart="3404.97" from="-1019458707" to="183543973#0" departLane="best" type="bus_bus" departSpeed="max"/>
    <trip id="bus40" depart="3492.28" from="-1019458712" to="-690977716#1" departLane="best" type="bus_bus" departSpeed="max"/>
    <trip id="bus41" depart="3579.58" from="1155188968#0" to="1019458708#1" departLane="best" type="bus_bus" departSpeed="max"/>
</routes>
