<?xml version="1.0" encoding="UTF-8"?>

<!-- generated on 2025-09-26 19:55:44.801249 by randomTrips.py v1_24_0+0000-b72eb3fabc8
<configuration>
    <net-file value="C:/Users/kgaqu/OneDrive/Documents/4th Year/Capstone 2/v10/backend/networks/sm_molino_area/sm_molino_area.net.xml"/>
    <output-trip-file value="C:/Users/kgaqu/AppData/Local/Temp/tmpu9w_ahy6.trips_3.xml"/>
    <vehicle-class value="motorcycle"/>
    <random-factor value="2.25"/>
    <fringe-factor value="2.0"/>
    <edge-permission value="motorcycle"/>
    <seed value="456"/>
    <random value="True"/>
    <min-distance value="300.0"/>
    <period value="440.03508098583404"/>
</configuration>
-->

<!-- generated on 2025-09-26 19:55:44 by Eclipse SUMO duarouter Version 1.24.0
<duarouterConfiguration xmlns:xsi="http://www.w3.org/2001/XMLSchema-instance" xsi:noNamespaceSchemaLocation="http://sumo.dlr.de/xsd/duarouterConfiguration.xsd">

    <input>
        <net-file value="C:/Users/kgaqu/OneDrive/Documents/4th Year/Capstone 2/v10/backend/networks/sm_molino_area/sm_molino_area.net.xml"/>
        <route-files value="C:/Users/kgaqu/AppData/Local/Temp/tmpu9w_ahy6.trips_3.xml"/>
    </input>

    <output>
        <output-file value="routes.rou.xml"/>
        <alternatives-output value="NUL"/>
    </output>

    <time>
        <begin value="0"/>
        <end value="3600"/>
    </time>

    <report>
        <no-warnings value="true"/>
        <ignore-errors value="true"/>
        <no-step-log value="true"/>
    </report>

</duarouterConfiguration>
-->

<routes xmlns:xsi="http://www.w3.org/2001/XMLSchema-instance" xsi:noNamespaceSchemaLocation="http://sumo.dlr.de/xsd/routes_file.xsd">
    <vType id="motorcycle" vClass="motorcycle"/>
    <vehicle id="0" type="motorcycle" depart="0.00">
        <route edges="580815653#0 183689805#0 1054125801"/>
    </vehicle>
    <vehicle id="1" type="motorcycle" depart="440.04">
        <route edges="561748189 573710409#0 683268248#0"/>
    </vehicle>
    <vehicle id="2" type="motorcycle" depart="880.07">
        <route edges="870991319#0 624604435#0 366952449#0"/>
    </vehicle>
    <vehicle id="3" type="motorcycle" depart="1320.11">
        <route edges="580815653#0 158466192#0 624604436 852188473 561748193"/>
    </vehicle>
    <vehicle id="4" type="motorcycle" depart="1760.14">
        <route edges="775185671 683268239"/>
    </vehicle>
    <vehicle id="5" type="motorcycle" depart="2200.18">
        <route edges="-678188678 624604434"/>
    </vehicle>
    <vehicle id="6" type="motorcycle" depart="2640.21">
        <route edges="580815653#0 158466192#0 624604436 852188473 561748193 561748189 573710409#0"/>
    </vehicle>
    <vehicle id="7" type="motorcycle" depart="3080.25">
        <route edges="651079990 642898747 158466192#0 624604436 852188473 561748193 624604434"/>
    </vehicle>
    <vehicle id="8" type="motorcycle" depart="3520.28">
        <route edges="651079990 642898747 183689805#0 1054125801"/>
    </vehicle>
</routes>
