<?xml version="1.0" encoding="UTF-8"?>

<!-- generated on 2025-09-03 00:55:16 by Eclipse SUMO netconvert Version 1.24.0
<netconvertConfiguration xmlns:xsi="http://www.w3.org/2001/XMLSchema-instance" xsi:noNamespaceSchemaLocation="http://sumo.dlr.de/xsd/netconvertConfiguration.xsd">

    <input>
        <type-files value="${SUMO_HOME}\data\typemap\osmNetconvert.typ.xml,${SUMO_HOME}\data\typemap\osmNetconvertUrbanDe.typ.xml,${SUMO_HOME}\data\typemap\osmNetconvertPedestrians.typ.xml,${SUMO_HOME}\data\typemap\osmNetconvertBicycle.typ.xml"/>
        <osm-files value="osm_bbox.osm.xml.gz"/>
    </input>

    <output>
        <output-file value="osm.net.xml.gz"/>
        <output.street-names value="true"/>
        <output.original-names value="true"/>
    </output>

    <projection>
        <proj.utm value="true"/>
    </projection>

    <processing>
        <geometry.remove value="true"/>
        <roundabouts.guess value="true"/>
    </processing>

    <tls_building>
        <tls.discard-simple value="true"/>
        <tls.join value="true"/>
        <tls.guess-signals value="true"/>
        <tls.default-type value="actuated"/>
    </tls_building>

    <ramp_guessing>
        <ramps.guess value="true"/>
    </ramp_guessing>

    <edge_removal>
        <keep-edges.by-vclass value="passenger"/>
    </edge_removal>

    <junctions>
        <junctions.join value="true"/>
        <junctions.corner-detail value="5"/>
    </junctions>

    <pedestrian>
        <crossings.guess value="true"/>
    </pedestrian>

    <formats>
        <osm.bike-access value="true"/>
        <osm.sidewalks value="true"/>
    </formats>

</netconvertConfiguration>
-->

<net version="1.20" junctionCornerDetail="5" walkingareas="true" limitTurnSpeed="5.50" xmlns:xsi="http://www.w3.org/2001/XMLSchema-instance" xsi:noNamespaceSchemaLocation="http://sumo.dlr.de/xsd/net_file.xsd">

    <location netOffset="-281407.70,-1590865.63" convBoundary="0.00,0.00,897.27,745.22" origBoundary="120.972757,14.381423,120.981109,14.388165" projParameter="+proj=utm +zone=51 +ellps=WGS84 +datum=WGS84 +units=m +no_defs"/>

    <type id="cycleway.lane|highway.primary" priority="12" numLanes="2" speed="13.89" disallow="pedestrian tram rail_urban rail rail_electric rail_fast ship container cable_car subway aircraft wheelchair scooter drone" oneway="0" sidewalkWidth="3.00" bikeLaneWidth="1.25"/>
    <type id="cycleway.lane|highway.primary_link" priority="7" numLanes="1" speed="13.89" disallow="pedestrian tram rail_urban rail rail_electric rail_fast ship container cable_car subway aircraft wheelchair scooter drone" oneway="0" sidewalkWidth="3.00" bikeLaneWidth="1.25"/>
    <type id="highway.primary" priority="12" numLanes="2" speed="13.89" disallow="pedestrian tram rail_urban rail rail_electric rail_fast ship container cable_car subway aircraft wheelchair scooter drone" oneway="0" sidewalkWidth="3.00"/>
    <type id="highway.primary_link" priority="7" numLanes="1" speed="13.89" disallow="pedestrian tram rail_urban rail rail_electric rail_fast ship container cable_car subway aircraft wheelchair scooter drone" oneway="0" sidewalkWidth="3.00"/>
    <type id="highway.secondary" priority="11" numLanes="1" speed="13.89" disallow="pedestrian tram rail_urban rail rail_electric rail_fast ship container cable_car subway aircraft wheelchair scooter drone" oneway="0" sidewalkWidth="3.00"/>
    <type id="highway.tertiary" priority="10" numLanes="1" speed="13.89" disallow="pedestrian tram rail_urban rail rail_electric rail_fast ship container cable_car subway aircraft wheelchair scooter drone" oneway="0" sidewalkWidth="3.00"/>

    <edge id=":1706575241_0" function="internal">
        <lane id=":1706575241_0_0" index="0" disallow="pedestrian tram rail_urban rail rail_electric rail_fast ship container cable_car subway aircraft wheelchair scooter drone" speed="16.67" length="2.98" width="4.00" shape="584.21,237.29 584.74,234.36"/>
    </edge>
    <edge id=":252895659_0" function="internal">
        <lane id=":252895659_0_0" index="0" allow="bicycle" speed="16.67" length="3.05" width="1.25" shape="657.86,506.56 656.95,506.56 656.32,506.33 655.69,506.10 654.78,506.11"/>
        <lane id=":252895659_0_1" index="1" disallow="pedestrian bicycle tram rail_urban rail rail_electric rail_fast ship container cable_car subway aircraft wheelchair scooter drone" speed="16.67" length="3.05" width="3.35" shape="657.49,504.38 654.60,505.07"/>
        <lane id=":252895659_0_2" index="2" disallow="pedestrian bicycle tram rail_urban rail rail_electric rail_fast ship container cable_car subway aircraft wheelchair scooter drone" speed="16.67" length="3.05" width="3.35" shape="656.97,501.26 654.01,501.78"/>
        <lane id=":252895659_0_3" index="3" disallow="pedestrian bicycle tram rail_urban rail rail_electric rail_fast ship container cable_car subway aircraft wheelchair scooter drone" speed="16.67" length="3.05" width="3.35" shape="656.44,498.14 653.41,498.48"/>
    </edge>
    <edge id=":252895801_0" function="internal">
        <lane id=":252895801_0_0" index="0" allow="bicycle" speed="13.89" length="19.80" width="1.25" shape="838.79,250.91 834.21,254.33 830.74,256.52 828.03,259.23 825.70,264.15"/>
        <lane id=":252895801_0_1" index="1" disallow="pedestrian bicycle tram rail_urban rail rail_electric rail_fast ship container cable_car subway aircraft wheelchair scooter drone" speed="13.89" length="19.80" shape="837.16,249.38 832.64,253.01 829.44,255.58 827.00,258.66 824.78,263.84"/>
        <lane id=":252895801_0_2" index="2" disallow="pedestrian bicycle tram rail_urban rail rail_electric rail_fast ship container cable_car subway aircraft wheelchair scooter drone" speed="13.89" length="19.80" shape="834.83,247.17 830.01,251.08 826.65,253.88 824.10,257.23 821.75,262.80"/>
    </edge>
    <edge id=":252895801_3" function="internal">
        <lane id=":252895801_3_0" index="0" allow="bicycle" speed="16.67" length="20.12" width="1.25" shape="831.23,244.70 825.70,264.15"/>
        <lane id=":252895801_3_1" index="1" disallow="pedestrian bicycle tram rail_urban rail rail_electric rail_fast ship container cable_car subway aircraft wheelchair scooter drone" speed="16.67" length="20.12" shape="829.10,244.06 821.75,262.80"/>
        <lane id=":252895801_3_2" index="2" disallow="pedestrian bicycle tram rail_urban rail rail_electric rail_fast ship container cable_car subway aircraft wheelchair scooter drone" speed="16.67" length="20.12" shape="826.03,243.13 818.72,261.77"/>
    </edge>
    <edge id=":289688381_0" function="internal">
        <lane id=":289688381_0_0" index="0" disallow="pedestrian bicycle tram rail_urban rail rail_electric rail_fast ship container cable_car subway aircraft wheelchair scooter drone" speed="16.67" length="8.17" width="4.00" shape="551.68,492.46 551.74,490.06 551.38,488.40 551.04,486.75 551.18,484.36"/>
    </edge>
    <edge id=":298636374_0" function="internal">
        <lane id=":298636374_0_0" index="0" disallow="pedestrian bicycle tram rail_urban rail rail_electric rail_fast ship container cable_car subway aircraft wheelchair scooter drone" speed="16.67" length="8.25" width="3.50" shape="557.20,484.73 557.17,487.14 557.58,488.80 557.98,490.46 557.96,492.88"/>
        <lane id=":298636374_0_1" index="1" disallow="pedestrian bicycle tram rail_urban rail rail_electric rail_fast ship container cable_car subway aircraft wheelchair scooter drone" speed="16.67" length="8.25" width="3.50" shape="557.20,484.73 556.63,487.08 555.84,488.59 555.05,490.11 554.49,492.46"/>
    </edge>
    <edge id=":4267554267_0" function="internal">
        <lane id=":4267554267_0_0" index="0" disallow="pedestrian tram rail_urban rail rail_electric rail_fast ship container cable_car subway aircraft wheelchair scooter drone" speed="10.43" length="8.73" shape="565.85,473.12 565.86,475.56 566.61,477.13 567.89,478.57 569.53,480.62"/>
    </edge>
    <edge id=":4267554267_1" function="internal">
        <lane id=":4267554267_1_0" index="0" disallow="pedestrian tram rail_urban rail rail_electric rail_fast ship container cable_car subway aircraft wheelchair scooter drone" speed="16.67" length="8.19" width="4.00" shape="565.85,473.12 565.07,481.28"/>
    </edge>
    <edge id=":5209645292_0" function="internal">
        <lane id=":5209645292_0_0" index="0" allow="bicycle" speed="16.67" length="2.08" width="1.25" shape="686.59,478.33 687.05,478.29 687.38,478.30 687.69,478.30 688.14,478.20"/>
        <lane id=":5209645292_0_1" index="1" disallow="pedestrian bicycle tram rail_urban rail rail_electric rail_fast ship container cable_car subway aircraft wheelchair scooter drone" speed="16.67" length="2.08" width="5.03" shape="687.11,481.54 687.69,481.46 688.10,481.42 688.49,481.35 689.06,481.20"/>
        <lane id=":5209645292_0_2" index="2" disallow="pedestrian bicycle tram rail_urban rail rail_electric rail_fast ship container cable_car subway aircraft wheelchair scooter drone" speed="16.67" length="2.08" width="5.03" shape="687.95,486.72 688.73,486.57 689.26,486.43 689.78,486.25 690.54,486.00"/>
    </edge>
    <edge id=":5209645292_w0" function="walkingarea">
        <lane id=":5209645292_w0_0" index="0" allow="pedestrian" speed="2.78" length="1.26" width="3.00" shape="687.96,477.60 687.07,474.73 686.02,474.75 686.50,477.71 686.81,477.68 687.04,477.68 687.23,477.69 687.43,477.70 687.65,477.68"/>
    </edge>
    <edge id=":5209717754_0" function="internal">
        <lane id=":5209717754_0_0" index="0" allow="bicycle" speed="16.67" length="7.46" width="1.25" shape="740.00,439.58 740.98,437.85 741.61,436.64 742.18,435.40 742.94,433.56"/>
        <lane id=":5209717754_0_1" index="1" disallow="pedestrian bicycle tram rail_urban rail rail_electric rail_fast ship container cable_car subway aircraft wheelchair scooter drone" speed="16.67" length="7.46" width="3.35" shape="742.72,441.13 743.64,439.25 744.05,437.86 744.38,436.44 745.07,434.44"/>
        <lane id=":5209717754_0_2" index="2" disallow="pedestrian bicycle tram rail_urban rail rail_electric rail_fast ship container cable_car subway aircraft wheelchair scooter drone" speed="16.67" length="7.46" width="3.35" shape="747.08,443.63 747.87,441.45 747.80,439.76 747.63,438.02 748.17,435.72"/>
        <lane id=":5209717754_0_3" index="3" disallow="pedestrian bicycle tram rail_urban rail rail_electric rail_fast ship container cable_car subway aircraft wheelchair scooter drone" speed="16.67" length="7.46" width="3.35" shape="747.08,443.63 748.34,441.67 749.34,440.40 750.25,439.08 751.26,436.99"/>
    </edge>
    <edge id=":5209717754_w0" function="walkingarea">
        <lane id=":5209717754_w0_0" index="0" allow="pedestrian" speed="2.78" length="6.42" width="3.00" shape="742.36,433.32 739.59,432.18 736.85,437.77 739.45,439.26 740.15,438.04 740.66,437.13 741.05,436.36 741.41,435.59 741.82,434.63"/>
    </edge>
    <edge id=":5898227177_0" function="internal">
        <lane id=":5898227177_0_0" index="0" allow="bicycle" speed="13.01" length="16.60" width="1.25" shape="578.64,489.80 581.99,491.78 585.60,493.00 589.47,493.47 593.60,493.19"/>
        <lane id=":5898227177_0_1" index="1" disallow="pedestrian bicycle tram rail_urban rail rail_electric rail_fast ship container cable_car subway aircraft wheelchair scooter drone" speed="13.69" length="16.60" width="5.25" shape="578.06,490.58 582.58,493.52 586.76,495.47 590.60,496.42 594.10,496.40"/>
    </edge>
    <edge id=":5898227177_2" function="internal">
        <lane id=":5898227177_2_0" index="0" allow="bicycle" speed="16.67" length="16.71" width="1.25" shape="577.08,495.93 593.60,493.19"/>
        <lane id=":5898227177_2_1" index="1" disallow="pedestrian bicycle tram rail_urban rail rail_electric rail_fast ship container cable_car subway aircraft wheelchair scooter drone" speed="16.67" length="16.71" width="5.25" shape="577.62,499.14 594.10,496.40"/>
        <lane id=":5898227177_2_2" index="2" disallow="pedestrian bicycle tram rail_urban rail rail_electric rail_fast ship container cable_car subway aircraft wheelchair scooter drone" speed="16.67" length="16.71" width="5.25" shape="578.48,504.32 594.91,501.58"/>
    </edge>
    <edge id=":6106191210_0" function="internal">
        <lane id=":6106191210_0_0" index="0" disallow="pedestrian tram rail_urban rail rail_electric rail_fast ship container cable_car subway aircraft wheelchair scooter drone" speed="16.67" length="3.32" width="4.00" shape="561.05,556.59 560.73,557.49 560.21,557.99 559.69,558.50 559.35,559.39"/>
        <lane id=":6106191210_0_1" index="1" disallow="pedestrian tram rail_urban rail rail_electric rail_fast ship container cable_car subway aircraft wheelchair scooter drone" speed="16.67" length="3.32" width="4.00" shape="554.51,555.74 554.59,556.67 554.96,557.28 555.33,557.89 555.40,558.81"/>
    </edge>
    <edge id=":6106191210_w0" function="walkingarea">
        <lane id=":6106191210_w0_0" index="0" allow="pedestrian" speed="2.78" length="4.03" width="3.00" shape="561.33,559.68 564.30,560.12 567.30,557.40 564.33,557.02"/>
    </edge>
    <edge id=":6106191272_0" function="internal">
        <lane id=":6106191272_0_0" index="0" disallow="pedestrian tram rail_urban rail rail_electric rail_fast ship container cable_car subway aircraft wheelchair scooter drone" speed="16.67" length="2.93" width="4.00" shape="563.71,374.14 564.20,371.25"/>
    </edge>
    <edge id=":6399772733_0" function="internal">
        <lane id=":6399772733_0_0" index="0" disallow="pedestrian tram rail_urban rail rail_electric rail_fast ship container cable_car subway aircraft wheelchair scooter drone" speed="11.11" length="2.80" width="13.20" shape="536.06,549.91 536.55,547.15"/>
    </edge>
    <edge id=":6399772733_w0" function="walkingarea">
        <lane id=":6399772733_w0_0" index="0" allow="pedestrian" speed="2.78" length="4.08" width="3.00" shape="530.08,545.85 527.14,545.26 529.14,548.87 532.11,549.32"/>
    </edge>
    <edge id=":6479733481_0" function="internal">
        <lane id=":6479733481_0_0" index="0" allow="bicycle" speed="13.89" length="19.44" width="1.25" shape="867.38,236.26 861.73,236.70 857.97,237.86 854.46,239.89 849.56,242.97"/>
    </edge>
    <edge id=":6479733481_1" function="internal">
        <lane id=":6479733481_1_0" index="0" allow="bicycle" speed="16.67" length="13.40" width="1.25" shape="867.38,236.26 863.44,236.03 860.78,235.39 858.12,234.67 854.19,234.21"/>
    </edge>
    <edge id=":6479733481_2" function="internal">
        <lane id=":6479733481_2_0" index="0" disallow="pedestrian bicycle tram rail_urban rail rail_electric rail_fast ship container cable_car subway aircraft wheelchair scooter drone" speed="13.89" length="0.58" shape="867.34,234.04 866.76,234.08"/>
        <lane id=":6479733481_2_1" index="1" disallow="pedestrian bicycle tram rail_urban rail rail_electric rail_fast ship container cable_car subway aircraft wheelchair scooter drone" speed="13.89" length="10.40" shape="867.28,230.84 860.94,231.28 857.05,232.38"/>
    </edge>
    <edge id=":6479733481_4" function="internal">
        <lane id=":6479733481_4_0" index="0" disallow="pedestrian bicycle tram rail_urban rail rail_electric rail_fast ship container cable_car subway aircraft wheelchair scooter drone" speed="16.67" length="12.96" shape="867.28,230.84 854.28,231.99"/>
        <lane id=":6479733481_4_1" index="1" disallow="pedestrian bicycle tram rail_urban rail rail_electric rail_fast ship container cable_car subway aircraft wheelchair scooter drone" speed="16.67" length="12.96" shape="867.22,227.64 854.41,228.79"/>
    </edge>
    <edge id=":6479733481_6" function="internal">
        <lane id=":6479733481_6_0" index="0" disallow="pedestrian bicycle tram rail_urban rail rail_electric rail_fast ship container cable_car subway aircraft wheelchair scooter drone" speed="13.89" length="19.82" shape="866.76,234.08 861.41,234.48 857.45,235.65 853.75,237.75 848.60,240.95"/>
        <lane id=":6479733481_6_1" index="0" disallow="pedestrian bicycle tram rail_urban rail rail_electric rail_fast ship container cable_car subway aircraft wheelchair scooter drone" speed="13.89" length="11.36" shape="857.05,232.38 856.69,232.48 852.72,234.65 847.22,238.05"/>
    </edge>
    <edge id=":8690727191_0" function="internal">
        <lane id=":8690727191_0_0" index="0" disallow="pedestrian tram rail_urban rail rail_electric rail_fast ship container cable_car subway aircraft wheelchair scooter drone" speed="3.65" length="4.67" shape="745.13,745.25 744.31,746.44 743.50,746.82 742.71,746.41 741.93,745.19"/>
    </edge>
    <edge id=":cluster_252895995_5209645285_5209645298_5830826754_#1more_0" function="internal">
        <lane id=":cluster_252895995_5209645285_5209645298_5830826754_#1more_0_0" index="0" allow="bicycle" speed="10.70" length="21.64" width="1.25" shape="853.99,234.21 845.44,234.13 839.15,234.69 835.12,235.90 833.33,237.75"/>
    </edge>
    <edge id=":cluster_252895995_5209645285_5209645298_5830826754_#1more_1" function="internal">
        <lane id=":cluster_252895995_5209645285_5209645298_5830826754_#1more_1_0" index="0" allow="bicycle" speed="15.28" length="72.20" width="1.25" shape="853.99,234.21 834.83,230.29 824.34,220.45 820.71,204.60 822.14,182.65"/>
    </edge>
    <edge id=":cluster_252895995_5209645285_5209645298_5830826754_#1more_2" function="internal">
        <lane id=":cluster_252895995_5209645285_5209645298_5830826754_#1more_2_0" index="0" disallow="pedestrian bicycle tram rail_urban rail rail_electric rail_fast ship container cable_car subway aircraft wheelchair scooter drone" speed="11.49" length="24.50" shape="854.08,231.98 844.75,231.98 837.82,232.85 833.30,234.58 831.18,237.17"/>
        <lane id=":cluster_252895995_5209645285_5209645298_5830826754_#1more_2_1" index="1" disallow="pedestrian bicycle tram rail_urban rail rail_electric rail_fast ship container cable_car subway aircraft wheelchair scooter drone" speed="12.40" length="28.67" shape="854.21,228.79 843.75,228.90 835.91,230.19 830.69,232.67 828.09,236.34"/>
    </edge>
    <edge id=":cluster_252895995_5209645285_5209645298_5830826754_#1more_4" function="internal">
        <lane id=":cluster_252895995_5209645285_5209645298_5830826754_#1more_4_0" index="0" disallow="pedestrian bicycle tram rail_urban rail rail_electric rail_fast ship container cable_car subway aircraft wheelchair scooter drone" speed="15.28" length="63.67" shape="854.21,228.79 837.39,225.31 828.18,216.59 825.01,202.56 826.28,183.17"/>
    </edge>
    <edge id=":cluster_252895995_5209645285_5209645298_5830826754_#1more_5" function="internal">
        <lane id=":cluster_252895995_5209645285_5209645298_5830826754_#1more_5_0" index="0" disallow="pedestrian bicycle tram rail_urban rail rail_electric rail_fast ship container cable_car subway aircraft wheelchair scooter drone" speed="6.38" length="12.44" shape="854.21,228.79 852.67,223.14 853.57,219.62 856.30,218.50"/>
    </edge>
    <edge id=":cluster_252895995_5209645285_5209645298_5830826754_#1more_21" function="internal">
        <lane id=":cluster_252895995_5209645285_5209645298_5830826754_#1more_21_0" index="0" disallow="pedestrian bicycle tram rail_urban rail rail_electric rail_fast ship container cable_car subway aircraft wheelchair scooter drone" speed="6.38" length="6.53" shape="856.30,218.50 856.93,218.24 862.74,218.99"/>
    </edge>
    <edge id=":cluster_252895995_5209645285_5209645298_5830826754_#1more_6" function="internal">
        <lane id=":cluster_252895995_5209645285_5209645298_5830826754_#1more_6_0" index="0" allow="bicycle" speed="10.50" length="10.85" width="1.25" shape="854.13,211.12 856.21,212.86 858.02,213.51 860.09,213.57 862.95,213.57"/>
        <lane id=":cluster_252895995_5209645285_5209645298_5830826754_#1more_6_1" index="1" disallow="pedestrian bicycle tram rail_urban rail rail_electric rail_fast ship container cable_car subway aircraft wheelchair scooter drone" speed="11.06" length="10.85" shape="853.43,211.80 855.65,213.91 857.53,215.06 859.72,215.59 862.86,215.79"/>
        <lane id=":cluster_252895995_5209645285_5209645298_5830826754_#1more_6_2" index="2" disallow="pedestrian bicycle tram rail_urban rail rail_electric rail_fast ship container cable_car subway aircraft wheelchair scooter drone" speed="11.86" length="10.85" shape="853.43,211.80 855.53,214.40 857.18,216.65 859.29,218.27 862.74,218.99"/>
    </edge>
    <edge id=":cluster_252895995_5209645285_5209645298_5830826754_#1more_9" function="internal">
        <lane id=":cluster_252895995_5209645285_5209645298_5830826754_#1more_9_0" index="0" allow="bicycle" speed="12.61" length="39.97" width="1.25" shape="840.59,187.81 840.57,198.69 844.28,206.61 851.75,211.57 862.95,213.57"/>
        <lane id=":cluster_252895995_5209645285_5209645298_5830826754_#1more_9_1" index="1" disallow="pedestrian bicycle tram rail_urban rail rail_electric rail_fast ship container cable_car subway aircraft wheelchair scooter drone" speed="13.44" length="45.58" shape="839.63,187.66 839.33,200.95 843.08,210.61 850.89,216.62 862.74,218.99"/>
    </edge>
    <edge id=":cluster_252895995_5209645285_5209645298_5830826754_#1more_11" function="internal">
        <lane id=":cluster_252895995_5209645285_5209645298_5830826754_#1more_11_0" index="0" allow="bicycle" speed="15.28" length="50.21" width="1.25" shape="840.59,187.81 839.43,197.77 838.02,211.10 836.09,225.28 833.33,237.75"/>
        <lane id=":cluster_252895995_5209645285_5209645298_5830826754_#1more_11_1" index="1" disallow="pedestrian bicycle tram rail_urban rail rail_electric rail_fast ship container cable_car subway aircraft wheelchair scooter drone" speed="15.28" length="50.21" shape="839.63,187.66 838.28,197.55 836.47,210.74 834.12,224.77 831.18,237.17"/>
        <lane id=":cluster_252895995_5209645285_5209645298_5830826754_#1more_11_2" index="2" disallow="pedestrian bicycle tram rail_urban rail rail_electric rail_fast ship container cable_car subway aircraft wheelchair scooter drone" speed="15.28" length="50.21" shape="836.46,187.22 835.12,197.05 833.34,210.10 831.02,224.00 828.09,236.34"/>
    </edge>
    <edge id=":cluster_252895995_5209645285_5209645298_5830826754_#1more_14" function="internal">
        <lane id=":cluster_252895995_5209645285_5209645298_5830826754_#1more_14_0" index="0" disallow="pedestrian tram rail_urban rail rail_electric rail_fast ship container cable_car subway aircraft wheelchair scooter drone" speed="5.93" length="12.09" shape="836.46,187.22 832.39,190.03 829.34,190.29 827.30,188.00 827.09,187.00"/>
    </edge>
    <edge id=":cluster_252895995_5209645285_5209645298_5830826754_#1more_22" function="internal">
        <lane id=":cluster_252895995_5209645285_5209645298_5830826754_#1more_22_0" index="0" disallow="pedestrian tram rail_urban rail rail_electric rail_fast ship container cable_car subway aircraft wheelchair scooter drone" speed="5.93" length="3.92" shape="827.09,187.00 826.28,183.17"/>
    </edge>
    <edge id=":cluster_252895995_5209645285_5209645298_5830826754_#1more_15" function="internal">
        <lane id=":cluster_252895995_5209645285_5209645298_5830826754_#1more_15_0" index="0" allow="bicycle" speed="15.28" length="50.37" width="1.25" shape="811.88,231.96 822.14,182.65"/>
    </edge>
    <edge id=":cluster_252895995_5209645285_5209645298_5830826754_#1more_16" function="internal">
        <lane id=":cluster_252895995_5209645285_5209645298_5830826754_#1more_16_0" index="0" allow="bicycle" speed="16.67" length="24.90" width="1.25" shape="811.88,231.96 816.65,223.22 826.75,217.23 829.88,216.58"/>
    </edge>
    <edge id=":cluster_252895995_5209645285_5209645298_5830826754_#1more_17" function="internal">
        <lane id=":cluster_252895995_5209645285_5209645298_5830826754_#1more_17_0" index="0" disallow="pedestrian bicycle tram rail_urban rail rail_electric rail_fast ship container cable_car subway aircraft wheelchair scooter drone" speed="15.28" length="50.81" shape="814.03,232.54 823.10,182.78"/>
        <lane id=":cluster_252895995_5209645285_5209645298_5830826754_#1more_17_1" index="1" disallow="pedestrian bicycle tram rail_urban rail rail_electric rail_fast ship container cable_car subway aircraft wheelchair scooter drone" speed="15.28" length="50.81" shape="817.13,233.38 826.28,183.17"/>
    </edge>
    <edge id=":cluster_252895995_5209645285_5209645298_5830826754_#1more_19" function="internal">
        <lane id=":cluster_252895995_5209645285_5209645298_5830826754_#1more_19_0" index="0" disallow="pedestrian bicycle tram rail_urban rail rail_electric rail_fast ship container cable_car subway aircraft wheelchair scooter drone" speed="15.40" length="12.95" shape="820.22,234.21 824.18,226.97 828.23,224.59"/>
    </edge>
    <edge id=":cluster_252895995_5209645285_5209645298_5830826754_#1more_20" function="internal">
        <lane id=":cluster_252895995_5209645285_5209645298_5830826754_#1more_20_0" index="0" disallow="pedestrian bicycle tram rail_urban rail rail_electric rail_fast ship container cable_car subway aircraft wheelchair scooter drone" speed="5.28" length="8.47" shape="820.22,234.21 822.99,231.79 825.22,231.34 826.92,232.85 827.00,233.08"/>
    </edge>
    <edge id=":cluster_252895995_5209645285_5209645298_5830826754_#1more_23" function="internal">
        <lane id=":cluster_252895995_5209645285_5209645298_5830826754_#1more_23_0" index="0" allow="bicycle" speed="16.67" length="33.34" width="1.25" shape="829.88,216.58 842.18,214.02 862.95,213.57"/>
    </edge>
    <edge id=":cluster_252895995_5209645285_5209645298_5830826754_#1more_24" function="internal">
        <lane id=":cluster_252895995_5209645285_5209645298_5830826754_#1more_24_0" index="0" disallow="pedestrian bicycle tram rail_urban rail rail_electric rail_fast ship container cable_car subway aircraft wheelchair scooter drone" speed="15.40" length="35.49" shape="828.23,224.59 832.59,222.02 845.44,219.36 862.74,218.99"/>
    </edge>
    <edge id=":cluster_252895995_5209645285_5209645298_5830826754_#1more_25" function="internal">
        <lane id=":cluster_252895995_5209645285_5209645298_5830826754_#1more_25_0" index="0" disallow="pedestrian bicycle tram rail_urban rail rail_electric rail_fast ship container cable_car subway aircraft wheelchair scooter drone" speed="5.28" length="3.44" shape="827.00,233.08 828.09,236.34"/>
    </edge>
    <edge id=":cluster_267424313_3721395345_0" function="internal">
        <lane id=":cluster_267424313_3721395345_0_0" index="0" disallow="pedestrian tram rail_urban rail rail_electric rail_fast ship container cable_car subway aircraft wheelchair scooter drone" speed="16.67" length="3.02" width="3.50" shape="203.61,613.04 200.69,613.57"/>
        <lane id=":cluster_267424313_3721395345_0_1" index="1" disallow="pedestrian tram rail_urban rail rail_electric rail_fast ship container cable_car subway aircraft wheelchair scooter drone" speed="16.67" length="3.02" width="3.50" shape="203.05,609.58 200.03,610.14"/>
    </edge>
    <edge id=":cluster_267424313_3721395345_2" function="internal">
        <lane id=":cluster_267424313_3721395345_2_0" index="0" disallow="pedestrian tram rail_urban rail rail_electric rail_fast ship container cable_car subway aircraft wheelchair scooter drone" speed="16.67" length="3.40" width="3.35" shape="197.28,595.89 200.75,595.39"/>
        <lane id=":cluster_267424313_3721395345_2_1" index="1" disallow="pedestrian tram rail_urban rail rail_electric rail_fast ship container cable_car subway aircraft wheelchair scooter drone" speed="16.67" length="3.40" width="3.35" shape="197.94,599.33 201.28,598.69"/>
        <lane id=":cluster_267424313_3721395345_2_2" index="2" disallow="pedestrian tram rail_urban rail rail_electric rail_fast ship container cable_car subway aircraft wheelchair scooter drone" speed="16.67" length="3.40" width="3.35" shape="198.60,602.76 201.82,602.00"/>
    </edge>
    <edge id=":cluster_3709250297_6226276990_7271845112_0" function="internal">
        <lane id=":cluster_3709250297_6226276990_7271845112_0_0" index="0" allow="bicycle" speed="5.44" length="6.07" width="1.25" shape="786.22,398.61 784.06,397.99 782.42,397.84 781.29,398.16 780.69,398.95"/>
        <lane id=":cluster_3709250297_6226276990_7271845112_0_1" index="1" disallow="pedestrian bicycle tram rail_urban rail rail_electric rail_fast ship container cable_car subway aircraft wheelchair scooter drone" speed="6.38" length="8.75" width="3.17" shape="786.55,397.69 783.46,396.80 781.10,396.59 779.48,397.07 778.59,398.25"/>
    </edge>
    <edge id=":cluster_3709250297_6226276990_7271845112_2" function="internal">
        <lane id=":cluster_3709250297_6226276990_7271845112_2_0" index="0" allow="bicycle" speed="11.51" length="30.10" width="1.25" shape="786.88,396.77 775.13,392.22 766.95,388.31 762.35,385.06 761.33,382.46"/>
        <lane id=":cluster_3709250297_6226276990_7271845112_2_1" index="1" disallow="pedestrian bicycle tram rail_urban rail rail_electric rail_fast ship container cable_car subway aircraft wheelchair scooter drone" speed="10.61" length="25.42" shape="786.55,397.69 777.05,393.90 770.54,390.39 767.01,387.15 766.47,384.19"/>
        <lane id=":cluster_3709250297_6226276990_7271845112_2_2" index="2" disallow="pedestrian bicycle tram rail_urban rail rail_electric rail_fast ship container cable_car subway aircraft wheelchair scooter drone" speed="9.99" length="22.42" shape="786.55,397.69 778.37,394.37 772.80,391.18 769.85,388.13 769.50,385.22"/>
    </edge>
    <edge id=":cluster_3709250297_6226276990_7271845112_5" function="internal">
        <lane id=":cluster_3709250297_6226276990_7271845112_5_0" index="0" disallow="pedestrian tram rail_urban rail rail_electric rail_fast ship container cable_car subway aircraft wheelchair scooter drone" speed="3.65" length="4.67" shape="786.55,397.69 785.69,396.53 785.58,395.65 786.23,395.03 787.63,394.68"/>
    </edge>
    <edge id=":cluster_3709250297_6226276990_7271845112_6" function="internal">