<?xml version="1.0" encoding="UTF-8"?>

<!-- generated on 2025-10-02 19:04:13 by Eclipse SUMO netedit Version 1.24.0
-->

<additional xmlns:xsi="http://www.w3.org/2001/XMLSchema-instance" xsi:noNamespaceSchemaLocation="http://sumo.dlr.de/xsd/additional_file.xsd">
    <!-- Shapes -->
    <poly id="1054124071" type="landuse.commercial" color="209,209,204" fill="1" layer="-3.00" shape="472.034916,53.068481 478.245973,53.998959 499.212585,57.168344 507.465257,58.412931"/>
    <poly id="1054124072" type="landuse.commercial" color="209,209,204" fill="1" layer="-3.00" shape="464.862192,99.932829 471.073335,100.874369 483.538766,102.757076 492.039910,104.043744 500.292568,105.288326"/>
    <poly id="1072534757" type="landuse.retail" color="194,194,130" fill="0" layer="-3.00" shape="452.387045,185.499986 461.112939,186.585466 483.538658,150.720533 523.178842,146.543832 522.002489,119.418390 521.075465,108.426134"/>
    <poly id="1072534757#1" type="shop.mall" color="237,199,255" fill="0" layer="-1.00" shape="452.387045,185.499986 461.112939,186.585466 483.538658,150.720533 523.178842,146.543832 522.002489,119.418390 521.075465,108.426134"/>
    <poly id="1072631667" type="landuse.retail" color="194,194,130" fill="0" layer="-3.00" shape="521.075465,108.426134 570.274262,62.488215"/>
    <poly id="1072631667#1" type="shop.mall" color="237,199,255" fill="0" layer="-1.00" shape="521.075465,108.426134 570.274262,62.488215"/>
    <poly id="1072631668" type="amenity.parking" color="184,184,179" fill="0" layer="-1.00" shape="521.075465,108.426134 500.292568,105.288326"/>
    <poly id="1131598134" type="landuse.residential" color="235,235,227" fill="1" layer="-3.00" shape="693.635204,301.855008 683.785729,335.042038 673.045191,409.338897"/>
    <poly id="1146999215" type="amenity.taxi" color="237,199,199" fill="1" layer="-1.00" shape="685.070728,258.858160 685.948340,200.196561 697.058684,200.099218 697.572532,258.748622 685.070728,258.858160"/>
    <poly id="1147930254" type="amenity.fast_food" color="237,199,199" fill="1" layer="-1.00" shape="384.875950,75.800549 363.152860,76.168205 363.821517,92.131723 384.647745,90.366451 384.875950,75.800549"/>
    <poly id="1148133442" type="shop.tea" color="237,199,255" fill="1" layer="-1.00" shape="363.430259,57.374354 364.634589,45.865389 368.280828,45.866598 372.520342,45.862604 371.540202,57.103998 363.430259,57.374354"/>
    <poly id="1148133443" type="shop.books" color="237,199,255" fill="1" layer="-1.00" shape="399.507637,95.891219 408.307630,95.581619 407.710830,108.712070 399.436385,108.673989 399.507637,95.891219"/>
    <poly id="1148133444" type="amenity.restaurant" color="237,199,199" fill="1" layer="-1.00" shape="371.540202,57.103998 372.520342,45.862604 387.921407,45.439753 386.980978,48.911909 385.606930,53.372814 381.062549,55.515372 371.540202,57.103998"/>
    <poly id="1148133445" type="amenity.fast_food" color="237,199,199" fill="1" layer="-1.00" shape="422.428262,83.240017 409.803923,81.690737 412.148192,88.221714 412.337853,91.396219 412.476311,93.652630 410.552256,95.672597 408.307630,95.581619 407.710830,108.712070 424.958239,108.483309 422.428262,83.240017"/>
    <poly id="1148134654" type="shop.chemist" color="237,199,255" fill="1" layer="-1.00" shape="373.465120,-0.150345 396.798913,-0.144773 401.826359,-0.100340 401.269957,5.338335 400.753014,10.356126 373.393215,10.098136 373.465120,-0.150345"/>
    <poly id="1148134655" type="amenity.fast_food" color="237,199,199" fill="1" layer="-1.00" shape="387.921407,45.439753 388.378878,39.791675 388.524662,37.964376 381.956162,38.099467 372.626525,38.291985 364.785373,38.460381 364.701281,42.400897 364.634589,45.865389 368.280828,45.866598 372.520342,45.862604 387.921407,45.439753"/>
    <poly id="1150124229" type="shop.pastry" color="237,199,255" fill="1" layer="-1.00" shape="379.608420,27.484876 379.496097,14.681582 369.335961,14.892453 369.446639,27.507626 379.608420,27.484876"/>
    <poly id="1150124230" type="amenity.fast_food" color="237,199,199" fill="1" layer="-1.00" shape="409.127494,68.527189 418.254013,68.546734 417.610568,61.602433 411.691031,61.931028 409.167887,62.063828 409.127494,68.527189"/>
    <poly id="1150124232" type="amenity.fast_food" color="237,199,199" fill="1" layer="-1.00" shape="407.598713,25.833852 413.036927,25.974284 412.996353,21.348722 407.645306,21.307125 407.598713,25.833852"/>
    <poly id="1150927040" type="amenity.fast_food" color="237,199,199" fill="1" layer="-1.00" shape="391.371355,109.143147 395.673443,108.895136 399.436385,108.673989 399.507637,95.891219 389.826232,96.562691 391.371355,109.143147"/>
    <poly id="1154182399" type="shop.bakery" color="237,199,255" fill="1" layer="-1.00" shape="372.626525,38.291985 372.650686,31.209026 384.082981,30.909527 388.181881,30.862502 388.287397,33.052801 388.524662,37.964376 381.956162,38.099467 372.626525,38.291985"/>
    <poly id="1155960636" type="amenity.fast_food" color="237,199,199" fill="1" layer="-1.00" shape="424.376386,47.067725 411.118239,44.594390 412.060794,42.594100 413.766121,39.004568 415.547939,34.296619 415.975373,30.142823 427.165380,31.737891 426.440281,36.392303 425.694093,41.102234 424.376386,47.067725"/>
    <poly id="1156924496" type="shop.bakery" color="237,199,255" fill="1" layer="-1.00" shape="427.165380,31.737891 415.975373,30.142823 416.315529,27.107539 417.665758,15.010760 429.150039,15.717906 428.976244,19.271870 428.912675,20.633642 427.615153,28.900848 427.165380,31.737891"/>
    <poly id="1157855185" type="amenity.restaurant" color="237,199,199" fill="0" layer="-1.00" shape="412.950449,-3.562221 414.575646,-1.529120 416.178201,0.382445 416.759222,1.439760 417.450053,2.717448 429.780288,2.708900 429.898582,0.206768"/>
    <poly id="1161275525" type="building.kiosk" color="255,230,230" fill="1" layer="-1.00" shape="421.376730,128.158279 421.968802,131.705525 419.640895,131.958348 417.819578,132.162460 417.411560,128.691067 421.376730,128.158279"/>
    <poly id="1161275525#1" type="shop.kiosk" color="237,199,255" fill="1" layer="-1.00" shape="421.376730,128.158279 421.968802,131.705525 419.640895,131.958348 417.819578,132.162460 417.411560,128.691067 421.376730,128.158279"/>
    <poly id="1162439126" type="amenity.fast_food" color="237,199,199" fill="1" layer="-1.00" shape="429.780288,2.708900 429.360671,11.444278 429.150039,15.717906 417.665758,15.010760 417.496280,5.528008 417.450053,2.717448 429.780288,2.708900"/>
    <poly id="1164236866" type="building.roof" color="255,230,230" fill="1" layer="-1.00" shape="211.930543,335.274569 210.104869,328.838653 224.514075,324.816607 226.339745,331.252524 211.930543,335.274569"/>
    <poly id="1164236867" type="building.yes" color="255,230,230" fill="1" layer="-1.00" shape="231.165677,335.382334 232.478073,322.677185 235.382517,322.972620 234.059430,335.688929 231.165677,335.382334"/>
    <poly id="1164236868" type="amenity.fuel" color="237,199,199" fill="1" layer="-1.00" shape="234.456299,339.116154 180.203227,333.915314 175.567165,325.611658 237.627146,308.322595 234.456299,339.116154"/>
    <poly id="1177130146" type="shop.chemist" color="237,199,255" fill="1" layer="-1.00" shape="364.785373,38.460381 372.626525,38.291985 372.650686,31.209026 368.326816,31.435096 364.757733,31.621344 364.785373,38.460381"/>
    <poly id="1179941480" type="shop.optician" color="237,199,255" fill="1" layer="-1.00" shape="364.634589,45.865389 359.250700,45.768757 355.107295,45.661243 355.262018,31.328387 359.815227,31.421239 364.757733,31.621344 364.785373,38.460381 364.701281,42.400897 364.634589,45.865389"/>
    <poly id="1187620911" type="building.yes" color="255,230,230" fill="1" layer="-1.00" shape="135.295046,306.941548 131.235445,306.545604 130.931965,308.839100 114.908129,307.120643 115.759550,292.294702 141.432661,293.375058 139.132302,306.586903 135.730594,306.174112 135.295046,306.941548"/>
    <poly id="1197256465" type="shop.bakery" color="237,199,255" fill="1" layer="-1.00" shape="429.360671,11.444278 418.718927,10.862543 418.892727,15.918542 419.011829,19.658072 428.976244,19.271870 429.360671,11.444278"/>
    <poly id="1197924221" type="amenity.cafe" color="237,199,199" fill="1" layer="-1.00" shape="373.393215,10.098136 373.465120,-0.150345 368.200750,-0.148427 361.760419,-0.158324 361.305349,9.451646 366.539784,9.726658 373.393215,10.098136"/>
    <poly id="1198234216" type="amenity.fast_food" color="237,199,199" fill="1" layer="-1.00" shape="421.471679,60.273751 410.926660,58.418493 408.353584,56.548642 407.046171,53.848747 407.424025,51.421805 408.950038,49.527065 409.997161,47.149586 411.118239,44.594390 424.376386,47.067725 421.471679,60.273751"/>
    <poly id="1198544840" type="shop.appliance" color="237,199,255" fill="1" layer="-1.00" shape="395.673443,108.895136 395.473869,94.753526 408.732998,93.652266 410.228299,91.945930 410.807789,90.369362 412.454724,85.042856 412.381412,79.144899 422.073986,79.746019 422.428262,83.240017 424.958239,108.483309 407.710830,108.712070 399.436385,108.673989 395.673443,108.895136"/>
    <poly id="1203399481" type="shop.clothes" color="237,199,255" fill="1" layer="-1.00" shape="353.131358,8.571618 354.168935,-3.500292 347.573121,-4.017894 346.839909,8.316949 349.624857,8.513850 353.131358,8.571618"/>
    <poly id="1204125264" type="shop.photo" color="237,199,255" fill="1" layer="-1.00" shape="308.622387,44.331661 308.952564,34.014508 312.360136,33.862869 315.724560,33.711609 315.577981,39.135626 315.448315,44.028288 312.116252,44.179264 308.622387,44.331661"/>
    <poly id="1205162742" type="shop.trade" color="237,199,255" fill="1" layer="-1.00" shape="395.473869,94.753526 391.497152,92.741056 389.878850,91.493639 388.673263,90.563538 386.693085,87.415807 386.916405,75.981851 363.152860,76.168205 363.821517,92.131723 363.848880,110.004356 385.818484,109.457465 391.371355,109.143147 395.673443,108.895136 395.473869,94.753526"/>
    <poly id="1207984305" type="shop.optician" color="237,199,255" fill="1" layer="-1.00" shape="346.839909,8.316949 347.573121,-4.017894 340.201048,7.810794 343.417955,8.059237 346.839909,8.316949"/>
    <poly id="1228193563" type="shop.department_store" color="237,199,255" fill="1" layer="-1.00" shape="363.848880,110.004356 282.829788,112.010171 280.130906,56.478525 279.234977,44.124774 308.622387,44.331661 312.116252,44.179264 315.448315,44.028288 355.107295,45.661243 359.250700,45.768757 364.634589,45.865389 363.430259,57.374354 363.278000,67.070202 363.152860,76.168205 363.821517,92.131723 363.848880,110.004356"/>
    <poly id="1228193564" type="amenity.payment_centre" color="237,199,199" fill="1" layer="-1.00" shape="393.855163,73.785087 393.900838,63.005631 405.551961,63.058358 405.506281,73.837814 393.855163,73.785087"/>
    <poly id="1228193564#1" type="tourism.information" color="207,245,201" fill="1" layer="-2.00" shape="393.855163,73.785087 393.900838,63.005631 405.551961,63.058358 405.506281,73.837814 393.855163,73.785087"/>
    <poly id="1287023048" type="amenity.toilets" color="237,199,199" fill="1" layer="-1.00" shape="368.280828,45.866598 368.304742,44.903578 368.327199,43.774568 368.326821,42.501890 364.701281,42.400897 364.634589,45.865389 368.280828,45.866598"/>
    <poly id="1298958231" type="landuse.commercial" color="209,209,204" fill="1" layer="-3.00" shape="303.969533,416.349761 300.985600,419.286524 296.775504,416.490381"/>
    <poly id="1298958232" type="landuse.commercial" color="209,209,204" fill="1" layer="-3.00" shape="293.962133,414.279584 296.775504,416.490381"/>
    <poly id="1332157569" type="landuse.residential" color="235,235,227" fill="1" layer="-3.00" shape="73.613908,326.828248 74.389711,276.389956 115.882245,280.474269 115.167442,291.204289 176.951723,299.017024 183.548992,243.204507 190.003550,232.556889 194.062484,210.763903 250.029422,228.067913 254.172812,223.261745 259.818699,208.969205 285.937404,216.564156 316.289589,143.577816 247.147128,114.791292 247.544933,66.713612 211.745103,69.672873"/>
    <poly id="1334658517" type="amenity.clinic" color="237,199,199" fill="1" layer="-2.00" shape="357.421046,17.973956 354.075086,17.770911 350.675095,17.557273 351.374773,6.318337 358.120726,6.735021 357.421046,17.973956"/>
    <poly id="1354602273" type="amenity.toilets" color="237,199,199" fill="1" layer="-1.00" shape="470.975186,183.167867 475.070259,183.917695 475.621869,181.622032 471.645062,180.826899 471.331164,181.936331 470.975186,183.167867"/>
    <poly id="1354602275" type="amenity.cafe" color="237,199,199" fill="1" layer="-1.00" shape="468.090268,182.639829 470.975186,183.167867 475.070259,183.917695 479.478731,184.731175 484.092441,185.576057 486.784354,178.857044 487.723802,176.502646 473.462787,171.603390 470.461098,176.211365 468.090268,182.639829"/>
    <poly id="14068036" type="landuse.commercial" color="209,209,204" fill="1" layer="-3.00" shape="464.862192,99.932829 471.073335,100.874369 483.538766,102.757076 492.039910,104.043744 500.292568,105.288326 521.075465,108.426134 528.248191,61.550750 507.465257,58.412931 499.212585,57.168344 478.245973,53.998959 472.034916,53.068481 464.862192,99.932829"/>
    <poly id="14068037" type="amenity.parking" color="184,184,179" fill="1" layer="-1.00" shape="500.292568,105.288326 507.465257,58.412931 528.248191,61.550750 521.075465,108.426134 500.292568,105.288326"/>
    <poly id="14283666" type="landuse.retail" color="194,194,130" fill="0" layer="-3.00" shape="570.274262,62.488215 521.075465,108.426134 522.002489,119.418390 523.178842,146.543832 483.538658,150.720533 461.112939,186.585466 452.387045,185.499986 447.817613,215.531066 449.826129,220.681640 455.852956,225.210429 464.054640,228.026925 473.933438,228.958427 567.063245,214.275144 578.850380,211.394052 584.815682,208.907069 591.862299,205.481000 598.508179,200.641897 605.815080,194.911661 612.001251,188.084572 617.892810,179.644317 622.826626,169.010169"/>
    <poly id="14283666#1" type="shop.mall" color="237,199,255" fill="0" layer="-1.00" shape="570.274262,62.488215 521.075465,108.426134 522.002489,119.418390 523.178842,146.543832 483.538658,150.720533 461.112939,186.585466 452.387045,185.499986 447.817613,215.531066 449.826129,220.681640 455.852956,225.210429 464.054640,228.026925 473.933438,228.958427 567.063245,214.275144 578.850380,211.394052 584.815682,208.907069 591.862299,205.481000 598.508179,200.641897 605.815080,194.911661 612.001251,188.084572 617.892810,179.644317 622.826626,169.010169"/>
    <poly id="1429892283" type="amenity.cafe" color="237,199,199" fill="1" layer="-1.00" shape="427.615153,28.900848 417.785645,27.448781 416.883940,35.336246 426.440281,36.392303 427.615153,28.900848"/>
    <poly id="150901328" type="amenity.motorcycle_parking" color="237,199,199" fill="0" layer="-1.00" shape="241.058621,76.210536 241.234794,114.710394"/>
    <poly id="17802507" type="landuse.commercial" color="209,209,204" fill="1" layer="-3.00" shape="293.962133,414.279584 296.775504,416.490381 300.985600,419.286524 303.969533,416.349761"/>
    <poly id="183687115" type="landuse.residential" color="235,235,227" fill="1" layer="-3.00" shape="96.298511,354.882505"/>
    <poly id="183687472" type="amenity.motorcycle_parking" color="237,199,199" fill="0" layer="-1.00" shape="275.216666,104.972109 274.082760,65.506786"/>
    <poly id="183687484" type="amenity.motorcycle_parking" color="237,199,199" fill="0" layer="-1.00" shape="275.216666,104.972109 274.239781,116.578691 274.500169,129.037622"/>
    <poly id="183687490" type="amenity.motorcycle_parking" color="237,199,199" fill="0" layer="-1.00" shape="274.500169,129.037622 241.234794,114.710394"/>
    <poly id="183689806" type="building.yes" color="255,230,230" fill="1" layer="-1.00" shape="412.541240,142.866083 429.210046,140.628241 427.895129,130.923133 421.968802,131.705525 419.640895,131.958348 417.819578,132.162460 411.226316,133.160974 412.541240,142.866083"/>
    <poly id="183689807" type="building.yes" color="255,230,230" fill="1" layer="-1.00" shape="427.546587,156.368742 379.023244,162.438491 382.454310,187.098405 356.896163,190.520964 355.282338,203.306207 372.233765,205.005620 371.016880,221.229152 373.208144,221.386994 415.142374,177.449123 419.448597,170.295401 418.982083,166.304381 428.582420,165.002820 427.546587,156.368742"/>
    <poly id="183689808" type="building.yes" color="255,230,230" fill="1" layer="-1.00" shape="366.334858,179.404548 380.333570,177.765571 378.865598,165.372574 364.866879,167.011551 366.334858,179.404548"/>
    <poly id="183689809" type="amenity.fuel" color="237,199,199" fill="1" layer="-1.00" shape="393.696532,224.162064 399.723886,225.060928 410.407318,226.715755 411.571479,219.235457 402.401587,217.954688 394.860687,216.681765 393.696532,224.162064"/>
    <poly id="183689809#1" type="building.roof" color="255,230,230" fill="1" layer="-1.00" shape="393.696532,224.162064 399.723886,225.060928 410.407318,226.715755 411.571479,219.235457 402.401587,217.954688 394.860687,216.681765 393.696532,224.162064"/>
    <poly id="183689811" type="building.yes" color="255,230,230" fill="1" layer="-1.00" shape="376.258723,149.813400 410.647705,144.675514 408.678121,131.667178 374.300004,136.816036 376.258723,149.813400"/>
    <poly id="183689812" type="building.yes" color="255,230,230" fill="1" layer="-1.00" shape="355.343139,179.500996 356.249288,170.894144 339.178404,169.107253 338.261474,177.714201 355.343139,179.500996"/>
    <poly id="183689813" type="building.yes" color="255,230,230" fill="1" layer="-1.00" shape="342.003992,209.586934 340.664252,216.725708 351.436902,218.711731 352.776742,211.584024 342.003992,209.586934"/>
    <poly id="183689814" type="building.yes" color="255,230,230" fill="1" layer="-1.00" shape="339.210274,201.012549 350.880474,202.016818 352.007825,189.114108 340.337619,188.109837 339.210274,201.012549"/>
    <poly id="183689815" type="building.yes" color="255,230,230" fill="1" layer="-1.00" shape="364.507654,148.201151 374.625083,146.817566 373.300522,137.245343 363.183089,138.628929 364.507654,148.201151"/>
    <poly id="183689816" type="building.yes" color="255,230,230" fill="1" layer="-1.00" shape="414.186935,207.492779 399.957090,204.917318 386.398796,219.865775 384.377605,218.190289 377.270148,225.744870 374.030647,222.918062 397.326737,197.746979 415.489470,201.029412 414.186935,207.492779"/>
    <poly id="183690513" type="building.yes" color="255,230,230" fill="1" layer="-1.00" shape="301.371214,332.951024 310.519992,333.058854 310.628284,324.503268 301.479503,324.395437 301.371214,332.951024"/>
    <poly id="183690514" type="building.yes" color="255,230,230" fill="1" layer="-1.00" shape="262.072761,355.130814 275.002319,355.825178 276.436382,315.197424 264.373531,314.927053 262.072761,355.130814"/>
    <poly id="183690515" type="building.yes" color="255,230,230" fill="1" layer="-1.00" shape="317.141490,374.611903 309.236212,373.607813 308.317761,380.809295 316.223037,381.813384 317.141490,374.611903"/>
    <poly id="183690516" type="building.yes" color="255,230,230" fill="1" layer="-1.00" shape="315.620005,324.171717 340.889574,323.529394 340.624628,313.007194 315.355146,313.660582 315.620005,324.171717"/>
    <poly id="183690517" type="building.yes" color="255,230,230" fill="1" layer="-1.00" shape="292.530266,370.368018 305.459502,375.942859 310.387605,364.677865 297.458267,359.091955 292.530266,370.368018"/>
    <poly id="183690521" type="leisure.swimming_pool" color="207,245,201" fill="1" layer="-2.00" shape="282.127718,369.983466 282.206167,360.487461 283.816112,358.326368 286.847760,357.137740 289.910596,358.272867 291.624312,360.559718 291.545860,370.055722 289.846124,371.819198 286.895234,372.376309 284.377272,371.867207 282.127718,369.983466"/>
    <poly id="183690525" type="amenity.parking" color="184,184,179" fill="1" layer="-1.00" shape="342.113500,310.570499 341.965219,291.215971 302.139736,297.607984 293.287154,294.376717 259.603590,304.887072 261.649160,313.025347 342.113500,310.570499"/>
    <poly id="183690526" type="leisure.swimming_pool" color="207,245,201" fill="1" layer="-2.00" shape="328.623398,371.379219 329.064687,370.036263 329.949299,368.811151 331.057711,367.274204 332.724015,366.617705 334.615473,367.032709 336.197809,367.870965 337.342745,369.266400 337.412218,371.036478 336.850813,373.442901 337.078492,374.802119 337.089273,376.030439 336.592594,377.207878 335.534036,378.279582 334.340016,378.666333 332.785082,378.491844 331.992118,377.867997 331.304301,376.933356 331.068942,375.928343 329.514791,374.613967 328.693552,373.226759 328.623398,371.379219"/>
    <poly id="183690527" type="landuse.commercial" color="209,209,204" fill="1" layer="-3.00" shape="261.649160,313.025347 261.248818,343.606439 261.119935,355.958123 259.991885,362.630243 301.974987,383.299668 342.690056,382.411093 342.113500,310.570499 341.965219,291.215971 302.139736,297.607984 293.287154,294.376717 259.603590,304.887072 261.649160,313.025347"/>
    <poly id="183690527#1" type="leisure.resort" color="207,245,201" fill="1" layer="-2.00" shape="261.649160,313.025347 261.248818,343.606439 261.119935,355.958123 259.991885,362.630243 301.974987,383.299668 342.690056,382.411093 342.113500,310.570499 341.965219,291.215971 302.139736,297.607984 293.287154,294.376717 259.603590,304.887072 261.649160,313.025347"/>
    <poly id="183690528" type="building.yes" color="255,230,230" fill="1" layer="-1.00" shape="299.651928,338.632318 303.148097,335.060252 307.461905,334.922786 310.807128,338.733603 310.873285,343.812683 307.639887,346.596698 303.033286,346.559666 299.891937,343.853741 299.651928,338.632318"/>
    <poly id="18469833" type="landuse.residential" color="235,235,227" fill="1" layer="-3.00" shape="96.298511,354.882505 58.954210,366.177864 54.828286,357.006531"/>
    <poly id="192056869" type="building.commercial" color="255,230,230" fill="1" layer="-1.00" shape="471.073335,100.874369 471.491333,98.104007 471.920117,95.333549 472.205844,93.471823 476.368816,66.288487 477.735550,57.301337 478.245973,53.998959 499.212585,57.168344 498.712849,60.459561 492.468696,101.273287 492.039910,104.043744 483.538766,102.757076 471.073335,100.874369"/>
    <poly id="202766064" type="building.church" color="255,230,230" fill="1" layer="-1.00" shape="-12.762699,1.514630 0.251994,0.824778 -12.762699,1.514630"/>
    <poly id="203064639" type="building.yes" color="255,230,230" fill="0" layer="-1.00" shape="-11.890778,239.410368 -13.693175,223.357189"/>
    <poly id="2445759" type="amenity.motorcycle_parking" color="237,199,199" fill="1" layer="-1.00" shape="241.058621,76.210536 241.234794,114.710394 274.500169,129.037622 274.239781,116.578691 275.216666,104.972109 274.082760,65.506786 240.926294,66.052373 241.058621,76.210536"/>
    <poly id="258756908" type="building.yes" color="255,230,230" fill="1" layer="-1.00" shape="-2.787509,301.835749 1.890433,301.396225 1.210810,294.031697 -3.478018,294.460250 -2.787509,301.835749"/>
    <poly id="258756911" type="building.yes" color="255,230,230" fill="0" layer="-1.00" shape="-18.360533,303.544128 -19.050950,296.179694"/>
    <poly id="258756920" type="building.yes" color="255,230,230" fill="1" layer="-1.00" shape="-16.781594,302.766638 -11.403195,302.243486 -11.983689,296.338907 -17.351303,296.861963 -16.781594,302.766638"/>
    <poly id="258756930" type="building.yes" color="255,230,230" fill="0" layer="-1.00" shape="-17.755783,315.889384 -18.203282,305.479439"/>
    <poly id="258756932" type="building.yes" color="255,230,230" fill="1" layer="-1.00" shape="-16.214447,315.743033 -11.179670,315.399971 -11.710445,305.333830 -16.834534,305.334605 -16.214447,315.743033"/>
    <poly id="258756935" type="building.yes" color="255,230,230" fill="1" layer="-1.00" shape="-9.770812,312.454879 -4.044223,312.271740 -4.460396,305.425036 -9.925088,305.948945 -9.770812,312.454879"/>
    <poly id="258756951" type="building.yes" color="255,230,230" fill="1" layer="-1.00" shape="-10.048433,302.961988 -4.865264,302.318819 -5.897069,294.160575 -11.080239,294.803744 -10.048433,302.961988"/>
    <poly id="258756953" type="building.yes" color="255,230,230" fill="1" layer="-1.00" shape="-2.880229,312.150840 2.243858,312.150067 1.739838,305.127067 -3.036741,305.390389 -2.880229,312.150840"/>
    <poly id="258757194" type="building.yes" color="255,230,230" fill="1" layer="-1.00" shape="56.167596,326.505682 60.976821,326.275285 60.528000,316.938836 55.707986,317.169328 56.167596,326.505682"/>
    <poly id="258757197" type="building.yes" color="255,230,230" fill="1" layer="-1.00" shape="-19.248768,209.860235 -13.328091,209.664324 -13.565557,202.284842 -19.486235,202.480753 -19.248768,209.860235"/>
    <poly id="258757198" type="building.yes" color="255,230,230" fill="1" layer="-1.00" shape="-5.066664,211.904674 2.363285,211.595900 1.925711,201.086268 -5.504242,201.395042 -5.066664,211.904674"/>
    <poly id="258757204" type="building.yes" color="255,230,230" fill="1" layer="-1.00" shape="-13.263071,174.106062 -7.650534,174.444069 -7.111259,165.840411 -12.734682,165.491432 -13.263071,174.106062"/>
    <poly id="258757205" type="building.yes" color="255,230,230" fill="1" layer="-1.00" shape="62.346249,326.207917 69.142662,326.236729 69.181484,317.150533 62.384971,317.110654 62.346249,326.207917"/>
    <poly id="258757208" type="building.yes" color="255,230,230" fill="0" layer="-1.00" shape="-14.717459,159.599178 -14.980212,149.342546"/>
    <poly id="258757209" type="building.yes" color="255,230,230" fill="1" layer="-1.00" shape="-6.863593,147.378780 2.671164,147.206445 2.523784,139.029362 -7.010976,139.201697 -6.863593,147.378780"/>
    <poly id="258757211" type="building.yes" color="255,230,230" fill="1" layer="-1.00" shape="-12.239871,211.967724 -6.909452,212.120074 -6.635191,202.821535 -11.965611,202.669185 -12.239871,211.967724"/>
    <poly id="258757212" type="building.yes" color="255,230,230" fill="1" layer="-1.00" shape="-20.169057,184.934779 -13.414874,185.063547 -13.229242,175.500183 -19.983428,175.371415 -20.169057,184.934779"/>
    <poly id="258757217" type="building.yes" color="255,230,230" fill="0" layer="-1.00" shape="-10.564677,332.592404 -11.016724,324.119193"/>
    <poly id="258757220" type="building.yes" color="255,230,230" fill="1" layer="-1.00" shape="-5.702887,199.659297 -1.002963,199.263850 -1.688032,191.279628 -6.377172,191.674981 -5.702887,199.659297"/>
    <poly id="258757221" type="building.yes" color="255,230,230" fill="1" layer="-1.00" shape="-6.002210,185.241863 4.405582,184.984385 4.225071,177.947475 -6.182626,178.216019 -6.002210,185.241863"/>
    <poly id="258757224" type="building.yes" color="255,230,230" fill="1" layer="-1.00" shape="-14.469069,147.357093 -8.255869,147.302483 -8.326870,139.224329 -14.540072,139.278939 -14.469069,147.357093"/>
    <poly id="258757228" type="building.yes" color="255,230,230" fill="1" layer="-1.00" shape="-4.617412,173.421396 4.032819,173.256834 3.873192,164.913856 -4.777138,165.067352 -4.617412,173.421396"/>
    <poly id="258757237" type="building.yes" color="255,230,230" fill="1" layer="-1.00" shape="2.065800,332.392845 7.629901,332.133669 7.323544,325.507337 1.759344,325.755447 2.065800,332.392845"/>
    <poly id="258757238" type="building.yes" color="255,230,230" fill="1" layer="-1.00" shape="-12.308416,183.305264 -8.985695,183.320326 -8.949006,177.675926 -12.271824,177.649798 -12.308416,183.305264"/>
    <poly id="258757239" type="building.yes" color="255,230,230" fill="1" layer="-1.00" shape="-13.766489,157.333188 -7.822378,157.347344 -7.800869,148.748237 -13.755769,148.734176 -13.766489,157.333188"/>
    <poly id="258757241" type="building.yes" color="255,230,230" fill="1" layer="-1.00" shape="28.980788,328.714500 40.458730,327.484810 39.519158,318.772415 28.041115,319.991039 28.980788,328.714500"/>
    <poly id="258757242" type="building.yes" color="255,230,230" fill="1" layer="-1.00" shape="-13.033328,200.243869 -8.038561,200.255301 -8.030176,191.390706 -13.024847,191.390339 -13.033328,200.243869"/>
    <poly id="258757248" type="building.yes" color="255,230,230" fill="1" layer="-1.00" shape="-0.015919,199.874916 4.708692,199.833391 4.665120,194.875840 -0.059492,194.917365 -0.015919,199.874916"/>
    <poly id="258757249" type="building.yes" color="255,230,230" fill="1" layer="-1.00" shape="-9.688531,331.632955 -3.046535,331.275767 -3.495369,323.167733 -10.126581,323.524827 -9.688531,331.632955"/>
    <poly id="258757253" type="building.yes" color="255,230,230" fill="1" layer="-1.00" shape="-4.933558,157.089550 0.999669,157.092737 1.014285,148.936364 -4.919041,148.922111 -4.933558,157.089550"/>
    <poly id="258757254" type="building.yes" color="255,230,230" fill="0" layer="-1.00" shape="-16.664422,147.962931 -16.910349,139.620710"/>
    <poly id="258757255" type="building.yes" color="255,230,230" fill="1" layer="-1.00" shape="42.699256,327.110981 54.314419,326.765437 54.115747,320.116026 42.489795,320.461665 42.699256,327.110981"/>
    <poly id="258757256" type="building.yes" color="255,230,230" fill="0" layer="-1.00" shape="-14.796145,199.739224 -14.871722,191.140969"/>
    <poly id="258757262" type="building.yes" color="255,230,230" fill="1" layer="-1.00" shape="-1.988463,331.377134 1.546957,331.047254 0.728165,322.577267 -2.807256,322.907147 -1.988463,331.377134"/>
    <poly id="258757264" type="building.yes" color="255,230,230" fill="1" layer="-1.00" shape="21.826962,329.751254 26.483812,329.367254 25.797679,321.261306 21.130138,321.656468 21.826962,329.751254"/>
    <poly id="258757267" type="building.yes" color="255,230,230" fill="0" layer="-1.00" shape="-14.411626,173.529615 -14.666005,165.453073"/>
    <poly id="258757371" type="building.yes" color="255,230,230" fill="1" layer="-1.00" shape="13.939977,190.909872 23.475495,190.826070 23.428913,185.525474 13.893393,185.609275 13.939977,190.909872"/>