<?xml version="1.0" encoding="UTF-8"?>

<!-- generated on 2025-09-26 19:54:58.671208 by randomTrips.py v1_24_0+0000-b72eb3fabc8
<configuration>
    <net-file value="C:/Users/kgaqu/OneDrive/Documents/4th Year/Capstone 2/v10/backend/networks/st_dominic_area/st_dominic_area.net.xml"/>
    <output-trip-file value="C:/Users/kgaqu/AppData/Local/Temp/tmpov926r5p.trips_3.xml"/>
    <vehicle-class value="motorcycle"/>
    <random-factor value="2.25"/>
    <fringe-factor value="2.0"/>
    <edge-permission value="motorcycle"/>
    <seed value="456"/>
    <random value="True"/>
    <min-distance value="300.0"/>
    <period value="426.9514220047584"/>
</configuration>
-->

<!-- generated on 2025-09-26 19:54:58 by Eclipse SUMO duarouter Version 1.24.0
<duarouterConfiguration xmlns:xsi="http://www.w3.org/2001/XMLSchema-instance" xsi:noNamespaceSchemaLocation="http://sumo.dlr.de/xsd/duarouterConfiguration.xsd">

    <input>
        <net-file value="C:/Users/kgaqu/OneDrive/Documents/4th Year/Capstone 2/v10/backend/networks/st_dominic_area/st_dominic_area.net.xml"/>
        <route-files value="C:/Users/kgaqu/AppData/Local/Temp/tmpov926r5p.trips_3.xml"/>
    </input>

    <output>
        <output-file value="routes.rou.xml"/>
        <alternatives-output value="NUL"/>
    </output>

    <time>
        <begin value="0"/>
        <end value="3600"/>
    </time>

    <report>
        <no-warnings value="true"/>
        <ignore-errors value="true"/>
        <no-step-log value="true"/>
    </report>

</duarouterConfiguration>
-->

<routes xmlns:xsi="http://www.w3.org/2001/XMLSchema-instance" xsi:noNamespaceSchemaLocation="http://sumo.dlr.de/xsd/routes_file.xsd">
    <vType id="motorcycle" vClass="motorcycle"/>
    <vehicle id="0" type="motorcycle" depart="0.00">
        <route edges="-1392084250 -653727191#1 -712245744#1 -564298126#9"/>
    </vehicle>
    <vehicle id="1" type="motorcycle" depart="426.95">
        <route edges="-1392084250 -653727191#1 -712245744#1 -564298126#9"/>
    </vehicle>
    <vehicle id="2" type="motorcycle" depart="853.90">
        <route edges="-653727191#1 1054315845#0"/>
    </vehicle>
    <vehicle id="3" type="motorcycle" depart="1280.85">
        <route edges="-712245744#1 -564298126#9"/>
    </vehicle>
    <vehicle id="4" type="motorcycle" depart="1707.81">
        <route edges="1054315844#0 555020953#0 653727191#0 653727192"/>
    </vehicle>
    <vehicle id="5" type="motorcycle" depart="2134.76">
        <route edges="1054315844#0 555020953#0 1326404883"/>
    </vehicle>
    <vehicle id="6" type="motorcycle" depart="2561.71">
        <route edges="653727191#0 -653727191#1 -712245744#1 -564298126#9"/>
    </vehicle>
    <vehicle id="7" type="motorcycle" depart="2988.66">
        <route edges="-1392084250 -653727191#1 -712245744#1 -564298126#9"/>
    </vehicle>
    <vehicle id="8" type="motorcycle" depart="3415.61">
        <route edges="1054315844#0 555020953#0 1326404883"/>
    </vehicle>
</routes>
