<?xml version="1.0" encoding="UTF-8"?>

<!-- generated on 2025-09-17 21:30:11 by Eclipse SUMO netedit Version 1.24.0
-->

<additional xmlns:xsi="http://www.w3.org/2001/XMLSchema-instance" xsi:noNamespaceSchemaLocation="http://sumo.dlr.de/xsd/additional_file.xsd">
    <!-- Shapes -->
    <poly id="1015262516" type="building.yes" color="255,230,230" fill="1" layer="-1.00" shape="84.762010,11.049833 84.491793,3.714818 90.906352,3.480627 91.176666,10.826708 84.762010,11.049833"/>
    <poly id="1015262517" type="building.yes" color="255,230,230" fill="1" layer="-1.00" shape="41.869422,-6.297521 48.746901,-4.200708 41.869422,-6.297521"/>
    <poly id="1015262519" type="building.yes" color="255,230,230" fill="1" layer="-1.00" shape="22.275180,16.796767 23.121767,6.507979 34.550679,7.446480 33.693304,17.735363 22.275180,16.796767"/>
    <poly id="1015262520" type="building.yes" color="255,230,230" fill="1" layer="-1.00" shape="22.458183,2.230959 23.992150,-2.320176 43.493708,4.135263 41.970521,8.686301 22.458183,2.230959"/>
    <poly id="1015262521" type="building.yes" color="255,230,230" fill="0" layer="-1.00" shape="1.496503,4.985223 0.641584,13.127088"/>
    <poly id="1027509731" type="building.retail" color="255,230,230" fill="1" layer="-1.00" shape="324.483962,415.760911 326.617403,424.042170 334.154929,422.768806 336.650435,422.049383 333.787629,412.999923 324.483962,415.760911"/>
    <poly id="1027509732" type="building.house" color="255,230,230" fill="1" layer="-1.00" shape="324.839269,414.485046 323.920682,410.630840 322.693954,410.929496 321.999892,408.069321 317.329422,409.173308 318.952757,415.876527 324.839269,414.485046"/>
    <poly id="1027509733" type="building.house" color="255,230,230" fill="1" layer="-1.00" shape="327.756169,407.796766 324.452806,408.622980 325.760129,413.746431 333.075987,411.799953 332.408613,409.515024 328.579333,410.622591 327.756169,407.796766"/>
    <poly id="1027509734" type="building.retail" color="255,230,230" fill="1" layer="-1.00" shape="330.550512,403.090568 331.629764,406.821608 332.408613,409.515024 333.075987,411.799953 337.185729,410.700958 334.949874,403.029293 330.550512,403.090568"/>
    <poly id="1027509735" type="building.retail" color="255,230,230" fill="1" layer="-1.00" shape="330.024608,396.100910 337.218898,396.247176 337.319010,391.742021 330.113936,391.595851 330.024608,396.100910"/>
    <poly id="1027509736" type="building.retail" color="255,230,230" fill="1" layer="-1.00" shape="338.231861,384.042344 332.183695,383.022655 331.230179,388.575699 337.278442,389.606454 338.231861,384.042344"/>
    <poly id="1027509737" type="building.retail" color="255,230,230" fill="1" layer="-1.00" shape="333.311469,376.449897 332.183695,383.022655 338.231861,384.042344 339.359636,377.469586 333.311469,376.449897"/>
    <poly id="1027509738" type="building.house" color="255,230,230" fill="1" layer="-1.00" shape="318.476089,374.423827 316.917774,383.512623 322.166700,384.395548 323.581535,376.149120 323.725018,375.306753 318.476089,374.423827"/>
    <poly id="1027509739" type="building.house" color="255,230,230" fill="1" layer="-1.00" shape="326.754191,366.691819 332.806299,368.154151 331.474384,373.599892 322.439504,371.422610 323.333979,367.718277 326.327535,368.433132 326.754191,366.691819"/>
    <poly id="1027509740" type="building.house" color="255,230,230" fill="1" layer="-1.00" shape="325.483507,358.413950 324.534370,365.671272 329.317159,366.281671 329.670747,363.600314 333.471177,364.097718 334.066728,359.521754 325.483507,358.413950"/>
    <poly id="1027509741" type="building.retail" color="255,230,230" fill="1" layer="-1.00" shape="334.107528,367.744163 340.325374,368.441400 341.215775,360.642319 334.997829,359.934015 334.107528,367.744163"/>
    <poly id="1027509742" type="building.retail" color="255,230,230" fill="1" layer="-1.00" shape="340.325374,368.441400 334.107528,367.744163 333.577366,372.397014 339.795211,373.094251 340.325374,368.441400"/>
    <poly id="1027509750" type="building.house" color="255,230,230" fill="1" layer="-1.00" shape="316.794375,426.608577 326.309266,425.771362 316.794375,426.608577"/>
    <poly id="1028568422" type="amenity.parking" color="184,184,179" fill="1" layer="-1.00" shape="372.392193,367.868397 367.787653,394.569724 361.952892,393.293590 364.752490,366.143503 372.392193,367.868397"/>
    <poly id="1028568423" type="building.retail" color="255,230,230" fill="1" layer="-1.00" shape="391.250210,359.002009 386.525572,358.866960 386.617317,355.844857 371.054230,355.662346 371.076297,366.629533 373.897516,367.368059 389.560532,371.511663 390.890021,371.853981 391.250210,359.002009"/>
    <poly id="1028568423#1" type="shop.trade" color="237,199,255" fill="1" layer="-1.00" shape="391.250210,359.002009 386.525572,358.866960 386.617317,355.844857 371.054230,355.662346 371.076297,366.629533 373.897516,367.368059 389.560532,371.511663 390.890021,371.853981 391.250210,359.002009"/>
    <poly id="1028568424" type="building.house" color="255,230,230" fill="1" layer="-1.00" shape="428.486575,385.552541 418.997537,383.235394 417.946025,387.472333 427.435160,389.800546 428.486575,385.552541"/>
    <poly id="1028568427" type="amenity.school" color="237,199,199" fill="0" layer="-2.00" shape="364.876532,422.517627 366.779639,395.209509"/>
    <poly id="1028568437" type="building.school" color="255,230,230" fill="1" layer="-1.00" shape="392.091466,377.199715 387.992197,391.601122 400.035823,394.991168 403.089943,384.328632 404.135098,380.589763 392.091466,377.199715"/>
    <poly id="1028733211" type="building.yes" color="255,230,230" fill="1" layer="-1.00" shape="242.029971,277.758844 248.084626,287.986195 249.705174,290.738520 260.744649,284.287821 260.295837,283.539260 253.058668,271.308238 242.029971,277.758844"/>
    <poly id="1028733212" type="building.yes" color="255,230,230" fill="1" layer="-1.00" shape="237.738016,270.503894 242.029971,277.758844 253.058668,271.308238 248.766715,264.053286 237.738016,270.503894"/>
    <poly id="1028733213" type="building.yes" color="255,230,230" fill="1" layer="-1.00" shape="248.084626,287.986195 242.023091,291.526244 226.327513,300.696608 227.958847,303.448836 249.705174,290.738520 248.084626,287.986195"/>
    <poly id="1028733214" type="building.yes" color="255,230,230" fill="1" layer="-1.00" shape="215.367767,282.179474 221.214398,292.054528 226.327513,300.696608 227.958847,303.448836 225.759502,304.730049 220.556205,307.764452 207.975903,286.494997 215.367767,282.179474"/>
    <poly id="1028733216" type="amenity.parking" color="184,184,179" fill="1" layer="-1.00" shape="342.806498,269.126321 329.812100,247.362486 332.023419,246.213981 334.395700,244.975509 347.269509,266.519078 342.806498,269.126321"/>
    <poly id="1028733218" type="amenity.parking" color="184,184,179" fill="1" layer="-1.00" shape="243.581180,317.553012 247.786655,315.091912 253.719474,311.630477 270.949085,301.550054 275.153381,308.650850 247.785483,324.653804 243.581180,317.553012"/>
    <poly id="1028733219" type="building.house" color="255,230,230" fill="1" layer="-1.00" shape="228.268756,332.209196 235.627174,327.772238 237.032297,326.918641 233.804152,321.657350 225.051293,326.936744 228.268756,332.209196"/>
    <poly id="1028733220" type="building.house" color="255,230,230" fill="1" layer="-1.00" shape="231.672093,337.767735 239.019629,333.319809 235.627174,327.772238 228.268756,332.209196 231.672093,337.767735"/>
    <poly id="1028733221" type="building.house" color="255,230,230" fill="1" layer="-1.00" shape="243.581180,317.553012 238.056060,320.778414 244.121590,331.016733 249.635925,327.791428 247.785483,324.653804 243.581180,317.553012"/>
    <poly id="1028733222" type="amenity.parking" color="184,184,179" fill="1" layer="-1.00" shape="339.320522,291.855721 342.684315,291.759395 342.470050,284.645229 339.117039,284.741459 339.320522,291.855721"/>
    <poly id="1028733222#1" type="building.roof" color="255,230,230" fill="1" layer="-1.00" shape="339.320522,291.855721 342.684315,291.759395 342.470050,284.645229 339.117039,284.741459 339.320522,291.855721"/>
    <poly id="1028733224" type="leisure.garden" color="207,245,201" fill="1" layer="-2.00" shape="344.669424,307.611794 344.857525,304.511365 338.891814,304.276694 337.427159,304.499997 337.030632,307.203869 344.669424,307.611794"/>
    <poly id="1028733225" type="amenity.parking" color="184,184,179" fill="1" layer="-1.00" shape="334.568359,323.781988 335.647197,316.556714 336.715154,309.320471 337.030632,307.203869 344.669424,307.611794 343.543430,325.295789 334.568359,323.781988"/>
    <poly id="1028733226" type="amenity.parking" color="184,184,179" fill="1" layer="-1.00" shape="329.904954,328.106400 297.274004,323.460852 288.906343,310.221719 257.971198,330.118784 328.267793,339.243288 329.904954,328.106400"/>
    <poly id="1028733227" type="building.gatehouse" color="255,230,230" fill="1" layer="-1.00" shape="331.474817,333.648062 331.139448,335.952979 334.983409,336.494264 335.318779,334.189347 331.474817,333.648062"/>
    <poly id="1028733228" type="leisure.garden" color="207,245,201" fill="1" layer="-2.00" shape="330.659302,323.197014 304.159251,319.171998 296.186734,305.497735 288.906343,310.221719 297.274004,323.460852 329.904954,328.106400 330.659302,323.197014"/>
    <poly id="1028733230" type="building.yes" color="255,230,230" fill="1" layer="-1.00" shape="335.109269,354.277793 251.459788,342.483230 252.749193,333.474289 236.054000,344.225059 334.469994,358.787745 334.784486,356.560482 335.109269,354.277793"/>
    <poly id="1029115114" type="building.hospital" color="255,230,230" fill="1" layer="-1.00" shape="412.312419,230.559426 397.718880,210.868242 388.697691,217.511192 398.030360,228.915720 399.176104,227.998038 405.674007,235.930612 412.312419,230.559426"/>
    <poly id="1029115115" type="building.house" color="255,230,230" fill="1" layer="-1.00" shape="448.557925,129.881765 452.394197,134.407253 454.567278,132.595082 450.730908,128.058528 448.557925,129.881765"/>
    <poly id="1029115117" type="building.house" color="255,230,230" fill="1" layer="-1.00" shape="453.129673,123.732147 449.802773,125.554575 451.271354,128.197594 454.598254,126.375165 453.129673,123.732147"/>
    <poly id="1029115118" type="building.house" color="255,230,230" fill="1" layer="-1.00" shape="453.601287,123.407012 455.517494,126.665801 459.476480,124.372941 457.560175,121.103085 453.601287,123.407012"/>
    <poly id="1029115119" type="building.house" color="255,230,230" fill="1" layer="-1.00" shape="451.613353,124.210441 456.578300,121.045412 453.746157,116.654867 448.781308,119.830962 451.613353,124.210441"/>
    <poly id="1029115123" type="building.house" color="255,230,230" fill="1" layer="-1.00" shape="442.698358,208.299140 445.558023,212.147157 433.073299,221.012147 430.344607,217.340039 442.698358,208.299140"/>
    <poly id="1029115124" type="building.industrial" color="255,230,230" fill="1" layer="-1.00" shape="460.630314,161.968273 453.583091,167.453747 460.335990,176.169823 462.563967,174.467834 463.993111,176.314381 468.866764,172.585749 465.604771,168.365030 460.630314,161.968273"/>
    <poly id="1029115125" type="building.house" color="255,230,230" fill="1" layer="-1.00" shape="534.093164,189.989794 536.627841,193.674703 539.907963,191.443223 537.373385,187.769380 534.093164,189.989794"/>
    <poly id="1029115126" type="building.house" color="255,230,230" fill="1" layer="-1.00" shape="536.045709,179.137873 541.752332,189.047432 545.057169,187.169877 539.350449,177.249251 536.045709,179.137873"/>
    <poly id="1029115127" type="building.house" color="255,230,230" fill="1" layer="-1.00" shape="528.960281,179.112310 530.711578,182.018426 539.068411,177.063619 537.317017,174.146437 528.960281,179.112310"/>
    <poly id="1029115128" type="building.house" color="255,230,230" fill="1" layer="-1.00" shape="531.747119,173.554055 533.333911,176.151758 537.270638,173.781639 535.683846,171.183936 531.747119,173.554055"/>
    <poly id="1029115129" type="building.house" color="255,230,230" fill="1" layer="-1.00" shape="531.459411,173.943956 527.210952,176.427516 528.645205,178.849503 532.893664,176.365943 531.459411,173.943956"/>
    <poly id="1029115130" type="building.house" color="255,230,230" fill="1" layer="-1.00" shape="533.053951,166.492778 524.677811,171.702299 527.324946,175.906355 535.701085,170.696836 533.053951,166.492778"/>
    <poly id="1029115131" type="building.yes" color="255,230,230" fill="1" layer="-1.00" shape="513.759493,151.757051 517.559268,155.818059 512.757486,160.353930 517.710325,165.533520 527.716386,159.280282 522.041852,154.195640 513.759493,151.757051"/>
    <poly id="1029115132" type="building.house" color="255,230,230" fill="1" layer="-1.00" shape="488.445819,148.971841 489.761274,145.308045 487.078350,144.358000 483.036739,147.061069 488.445819,148.971841"/>
    <poly id="1029115133" type="building.yes" color="255,230,230" fill="1" layer="-1.00" shape="483.531728,148.152299 485.111309,148.724808 486.265360,149.954050 486.732721,151.576741 486.402213,153.217592 485.250106,154.633339 483.541360,155.301481 481.727399,155.051998 480.261811,153.958329 479.500448,152.017309 479.946030,149.977025 481.453692,148.524915 483.531728,148.152299"/>
    <poly id="1029115134" type="building.house" color="255,230,230" fill="1" layer="-1.00" shape="492.429075,151.835980 488.251461,150.157735 485.824217,156.133344 490.001831,157.811590 492.429075,151.835980"/>
    <poly id="1029115135" type="building.house" color="255,230,230" fill="1" layer="-1.00" shape="513.754444,163.322085 500.835636,157.327944 498.200261,162.940192 511.119067,168.934331 513.754444,163.322085"/>
    <poly id="1029115138" type="building.yes" color="255,230,230" fill="1" layer="-1.00" shape="551.894407,205.380685 554.352868,204.130403 551.763162,199.106878 549.304799,200.368227 551.894407,205.380685"/>
    <poly id="1029115139" type="building.yes" color="255,230,230" fill="1" layer="-1.00" shape="555.190229,203.702417 554.352868,204.130403 551.894407,205.380685 550.949704,205.864961 554.296439,212.342598 558.536962,210.180055 555.190229,203.702417"/>
    <poly id="1029115140" type="building.industrial" color="255,230,230" fill="1" layer="-1.00" shape="563.342425,246.105009 558.124979,242.698480 557.624951,243.466545 550.748444,236.610799 553.252031,233.157788 554.562346,231.342227 572.582093,240.987428 583.758598,245.093561 583.120486,250.953658 573.316478,249.602072 563.342425,246.105009"/>
    <poly id="1029115141" type="building.yes" color="255,230,230" fill="1" layer="-1.00" shape="528.504553,341.380340 526.688602,359.103642 533.350248,357.561453 534.426555,362.177882 539.301329,361.005721 537.684442,341.675021 535.583479,341.892901 535.193205,338.022929 530.614062,338.484176 530.885782,341.148901 528.504553,341.380340"/>
    <poly id="1029115148" type="building.yes" color="255,230,230" fill="1" layer="-1.00" shape="471.221266,323.396661 476.462876,316.178656 481.563771,319.818610 501.420886,292.317713 503.306506,289.711278 495.840749,283.292398 492.385106,280.335034 463.548010,317.898194 471.221266,323.396661"/>
    <poly id="1029115149" type="building.yes" color="255,230,230" fill="1" layer="-1.00" shape="471.221266,323.396661 463.548010,317.898194 453.608154,331.587891 461.270625,337.086451 471.221266,323.396661"/>
    <poly id="1029115150" type="building.retail" color="255,230,230" fill="1" layer="-1.00" shape="506.778673,351.544811 475.012250,328.896445 466.362114,340.881423 498.128532,363.529777 499.790354,361.224139 506.778673,351.544811"/>
    <poly id="1029115151" type="leisure.swimming_pool" color="207,245,201" fill="1" layer="-2.00" shape="545.288281,171.917535 547.572216,172.871131 550.698135,173.916847 552.586628,175.272369 553.030057,176.629666 553.086958,178.178536 552.732716,179.576123 549.758109,190.702731 549.114651,191.106861 548.312850,190.682374 543.393252,181.961053 543.007736,179.839621 541.516751,178.314562 536.972471,171.781167 536.658834,170.466984 537.220811,169.388493 538.497633,168.657793 540.016607,168.478288 541.503167,169.505372 543.033253,170.576338 545.288281,171.917535"/>
    <poly id="1029115152" type="building.yes" color="255,230,230" fill="1" layer="-1.00" shape="441.299051,266.811637 437.045098,262.610810 426.541536,269.908814 424.698029,271.186843 431.039298,277.272628 441.299051,266.811637"/>
    <poly id="1029115153" type="building.yes" color="255,230,230" fill="1" layer="-1.00" shape="457.998603,268.666277 452.558748,263.291824 445.813867,271.242553 451.525272,276.835929 457.998603,268.666277"/>
    <poly id="1029115154" type="building.yes" color="255,230,230" fill="1" layer="-1.00" shape="451.579594,262.326636 445.748094,256.568322 438.321028,261.780508 437.045098,262.610810 441.299051,266.811637 444.780304,270.222514 451.579594,262.326636"/>
    <poly id="1029115155" type="building.yes" color="255,230,230" fill="1" layer="-1.00" shape="456.186672,249.237705 466.564803,258.153954 457.998603,268.666277 452.558748,263.291824 451.579594,262.326636 445.748094,256.568322 456.186672,249.237705"/>
    <poly id="1029115156" type="building.industrial" color="white" fill="1" layer="0.00" shape="533.084292,222.081917 526.572500,213.795295 523.509425,216.179785 530.021119,224.455340 533.084292,222.081917"/>
    <poly id="1029871068" type="building.yes" color="255,230,230" fill="1" layer="-1.00" shape="222.757839,148.014934 219.458422,140.806486 235.386764,134.754954 238.003182,141.560003 222.757839,148.014934"/>
    <poly id="1029871070" type="building.roof" color="255,230,230" fill="1" layer="-1.00" shape="265.221799,132.995415 257.218922,136.519528 256.459608,134.810901 254.236959,129.839467 262.229054,126.315449 264.451603,131.275818 265.221799,132.995415"/>
    <poly id="1029871071" type="amenity.parking" color="184,184,179" fill="1" layer="-1.00" shape="303.771548,200.448791 299.310103,203.233098 305.840097,213.555835 313.058086,209.086957 306.581814,198.741606 303.771548,200.448791"/>
    <poly id="1029871073" type="landuse.retail" color="194,194,130" fill="0" layer="-3.00" shape="275.839158,142.119744 272.358054,143.578360 251.568292,152.307072 250.429394,152.782021 207.143336,171.151122 181.573055,181.947710"/>
    <poly id="1030231669" type="natural.grassland" color="140,196,107" fill="0" layer="-4.00" shape="231.247709,47.738830 204.508438,-3.728193"/>
    <poly id="1030231674" type="building.house" color="255,230,230" fill="1" layer="-1.00" shape="215.851574,105.114333 218.962994,103.315923 217.594095,100.970836 214.482576,102.758180 215.851574,105.114333"/>
    <poly id="1030231675" type="building.house" color="255,230,230" fill="1" layer="-1.00" shape="194.034259,79.577755 198.185128,83.093314 201.227169,79.558002 197.076300,76.042441 194.034259,79.577755"/>
    <poly id="1030231677" type="building.yes" color="255,230,230" fill="1" layer="-1.00" shape="158.839602,8.674917 160.167360,16.089052 164.431189,15.331743 163.103432,7.917608 158.839602,8.674917"/>
    <poly id="1030231678" type="building.yes" color="255,230,230" fill="1" layer="-1.00" shape="176.850008,0.269689 172.275671,0.066932 172.114272,3.742611 176.699293,3.934206 176.850008,0.269689"/>
    <poly id="1030231679" type="building.yes" color="255,230,230" fill="1" layer="-1.00" shape="190.540663,-1.545417 190.620478,-3.482852 180.166518,-3.932088 180.059672,-1.396795 190.540663,-1.545417"/>
    <poly id="1030231680" type="landuse.commercial" color="209,209,204" fill="1" layer="-3.00" shape="181.573055,181.947710 183.645828,252.459225"/>
    <poly id="1030231685" type="landuse.retail" color="194,194,130" fill="0" layer="-3.00" shape="248.985777,86.293318 236.147307,57.832593 234.056512,53.136661"/>
    <poly id="1030231686" type="building.retail" color="255,230,230" fill="1" layer="-1.00" shape="253.929363,127.994016 251.829417,122.268935 262.621841,118.343721 263.284893,120.141740 265.370367,119.392762 266.674510,122.944728 264.707260,123.648387 265.160209,124.861725 262.236391,125.928039 261.926974,125.089701 253.929363,127.994016"/>
    <poly id="1030231686#1" type="shop.car_parts" color="237,199,255" fill="1" layer="-1.00" shape="253.929363,127.994016 251.829417,122.268935 262.621841,118.343721 263.284893,120.141740 265.370367,119.392762 266.674510,122.944728 264.707260,123.648387 265.160209,124.861725 262.236391,125.928039 261.926974,125.089701 253.929363,127.994016"/>
    <poly id="1030231688" type="building.house" color="255,230,230" fill="1" layer="-1.00" shape="194.375076,69.404153 196.131444,72.874624 199.749588,71.060634 197.993319,67.601230 194.375076,69.404153"/>
    <poly id="1030231689" type="building.house" color="255,230,230" fill="1" layer="-1.00" shape="232.558063,66.529988 234.079456,70.257092 239.753191,67.971070 238.231799,64.243965 232.558063,66.529988"/>
    <poly id="1030231690" type="building.house" color="255,230,230" fill="1" layer="-1.00" shape="222.173047,111.388392 223.759632,115.170251 219.569286,116.911861 217.982602,113.118937 222.173047,111.388392"/>
    <poly id="1030231691" type="building.house" color="255,230,230" fill="1" layer="-1.00" shape="220.534573,121.164062 222.590507,126.789931 227.384818,125.054013 225.328885,119.428144 220.534573,121.164062"/>
    <poly id="1030231692" type="building.house" color="255,230,230" fill="1" layer="-1.00" shape="229.854056,116.532588 231.649956,120.810598 226.943782,122.756004 225.147980,118.489060 229.854056,116.532588"/>
    <poly id="1030231693" type="building.house" color="255,230,230" fill="1" layer="-1.00" shape="227.899900,109.013357 230.874832,116.114025 229.854056,116.532588 225.147980,118.489060 223.759632,115.170251 222.173047,111.388392 227.899900,109.013357"/>
    <poly id="1030231694" type="building.house" color="255,230,230" fill="1" layer="-1.00" shape="227.162207,123.063935 232.041899,121.227656 233.488299,125.010762 226.598717,127.606417 225.991254,125.996043 227.990360,125.236763 227.162207,123.063935"/>
    <poly id="1030231695" type="building.house" color="255,230,230" fill="1" layer="-1.00" shape="236.168383,125.639863 243.065154,123.852037 242.306478,121.003505 235.420489,122.791235 236.168383,125.639863"/>
    <poly id="1030231696" type="building.house" color="255,230,230" fill="1" layer="-1.00" shape="238.463169,105.997665 232.037857,108.655589 231.553049,107.497869 227.899900,109.013357 230.874832,116.114025 229.854056,116.532588 231.649956,120.810598 238.956250,117.779623 237.160155,113.479480 238.685878,112.846151 237.782438,110.696128 240.038772,109.757488 238.463169,105.997665"/>
    <poly id="1030231697" type="building.house" color="255,230,230" fill="1" layer="-1.00" shape="225.825937,84.396689 219.956186,87.680490 221.533810,90.455331 227.392679,87.160561 225.825937,84.396689"/>
    <poly id="1030231698" type="building.retail" color="255,230,230" fill="1" layer="-1.00" shape="254.007916,99.252343 242.074564,104.637488 244.912115,110.842953 256.845464,105.457809 254.007916,99.252343"/>
    <poly id="1030231698#1" type="shop.tyres" color="237,199,255" fill="1" layer="-1.00" shape="254.007916,99.252343 242.074564,104.637488 244.912115,110.842953 256.845464,105.457809 254.007916,99.252343"/>
    <poly id="1030231699" type="building.retail" color="255,230,230" fill="1" layer="-1.00" shape="252.522165,116.496868 248.484558,118.436320 250.198372,121.973573 254.235979,120.034122 252.522165,116.496868"/>
    <poly id="1030231700" type="building.retail" color="255,230,230" fill="1" layer="-1.00" shape="261.069879,112.392423 252.522165,116.496868 254.235979,120.034122 262.794476,115.929581 261.069879,112.392423"/>
    <poly id="1030231700#1" type="shop.trade" color="237,199,255" fill="1" layer="-1.00" shape="261.069879,112.392423 252.522165,116.496868 254.235979,120.034122 262.794476,115.929581 261.069879,112.392423"/>
    <poly id="1030231701" type="building.retail" color="255,230,230" fill="1" layer="-1.00" shape="257.994015,106.067340 249.446299,110.171786 252.522165,116.496868 261.069879,112.392423 257.994015,106.067340"/>
    <poly id="1030231701#1" type="shop.car" color="237,199,255" fill="1" layer="-1.00" shape="257.994015,106.067340 249.446299,110.171786 252.522165,116.496868 261.069879,112.392423 257.994015,106.067340"/>
    <poly id="1030231702" type="building.retail" color="255,230,230" fill="1" layer="-1.00" shape="240.539781,96.981721 243.116759,102.990299 254.139828,98.321542 251.562951,92.324029 240.539781,96.981721"/>
    <poly id="1030231703" type="building.retail" color="255,230,230" fill="1" layer="-1.00" shape="240.539781,96.981721 251.562951,92.324029 248.985777,86.293318 237.962604,90.951011 240.539781,96.981721"/>
    <poly id="1030231704" type="building.house" color="255,230,230" fill="1" layer="-1.00" shape="232.297395,100.253432 227.537792,102.254647 229.872714,107.723096 234.621631,105.733043 232.297395,100.253432"/>
    <poly id="1030231705" type="building.house" color="255,230,230" fill="1" layer="-1.00" shape="230.443934,95.566455 225.760208,97.611263 227.565218,101.701054 232.248845,99.645179 230.443934,95.566455"/>
    <poly id="1030231706" type="building.house" color="255,230,230" fill="1" layer="-1.00" shape="232.612328,99.287801 237.801493,97.083558 235.863342,92.574406 230.674176,94.778649 232.612328,99.287801"/>
    <poly id="1030231707" type="building.house" color="255,230,230" fill="1" layer="-1.00" shape="232.757633,99.861991 235.576180,106.355367 240.980027,104.038544 238.161481,97.545168 232.757633,99.861991"/>
    <poly id="1030231708" type="building.house" color="255,230,230" fill="1" layer="-1.00" shape="250.206640,135.021482 255.076139,133.251699 253.683561,129.457047 248.814062,131.226829 250.206640,135.021482"/>
    <poly id="1030231709" type="building.house" color="255,230,230" fill="1" layer="-1.00" shape="247.326943,131.350733 237.225991,134.207370 238.494784,138.633943 248.584951,135.777402 247.326943,131.350733"/>
    <poly id="1030231710" type="building.house" color="255,230,230" fill="1" layer="-1.00" shape="243.574729,124.157378 244.957264,129.246958 242.450552,129.922218 243.019214,132.019886 238.328503,133.278998 236.377304,126.091751 243.574729,124.157378"/>
    <poly id="1030231711" type="building.house" color="255,230,230" fill="1" layer="-1.00" shape="253.163695,129.207132 251.214963,122.296537 244.652770,124.114584 246.590721,131.025275 253.163695,129.207132"/>
    <poly id="1030819539" type="building.house" color="255,230,230" fill="1" layer="-1.00" shape="278.387376,28.538698 273.529919,30.452236 274.842385,33.727455 279.699842,31.813916 278.387376,28.538698"/>
    <poly id="1030819540" type="landuse.retail" color="194,194,130" fill="0" layer="-3.00" shape="299.949511,24.185681 305.579635,21.844729"/>
    <poly id="1030819541" type="landuse.residential" color="235,235,227" fill="1" layer="-3.00" shape="314.905797,50.690868 314.456748,32.943417 310.276161,26.085874 305.579635,21.844729"/>
    <poly id="1030819542" type="landuse.retail" color="194,194,130" fill="0" layer="-3.00" shape="299.949511,24.185681 307.529286,30.072291 306.098706,40.189176 302.993430,41.467370 295.203429,44.679696 285.962792,48.480415 263.593298,57.842910"/>
    <poly id="1030819543" type="building.house" color="255,230,230" fill="1" layer="-1.00" shape="253.842518,44.306207 256.590652,50.158326 259.587206,48.781490 260.972749,48.149410 258.256868,42.285937 253.842518,44.306207"/>
    <poly id="1030819544" type="building.house" color="255,230,230" fill="1" layer="-1.00" shape="272.849177,35.150696 265.176908,38.262382 267.149376,42.992570 274.799683,39.836812 272.849177,35.150696"/>
    <poly id="1030819545" type="building.house" color="255,230,230" fill="1" layer="-1.00" shape="291.973011,36.740205 282.710016,40.452587 285.962792,48.480415 295.203429,44.679696 291.973011,36.740205"/>
    <poly id="1030819546" type="building.house" color="255,230,230" fill="1" layer="-1.00" shape="308.808116,64.722716 310.883539,67.692340 313.723809,65.719284 311.648485,62.760726 308.808116,64.722716"/>
    <poly id="1030819547" type="building.house" color="255,230,230" fill="1" layer="-1.00" shape="298.157062,74.844161 304.326540,72.520543 301.610133,65.384368 299.202531,66.291146 295.440653,67.707987 298.157062,74.844161"/>
    <poly id="1030819548" type="building.house" color="255,230,230" fill="1" layer="-1.00" shape="316.597349,54.150855 313.161870,57.103100 315.406381,59.683875 318.841958,56.742696 316.597349,54.150855"/>
    <poly id="1030819549" type="building.house" color="255,230,230" fill="1" layer="-1.00" shape="311.222345,54.862688 313.161870,57.103100 316.597349,54.150855 314.657824,51.910443 311.222345,54.862688"/>
    <poly id="1030819550" type="building.house" color="255,230,230" fill="1" layer="-1.00" shape="314.770654,59.744865 311.521107,61.776897 314.058586,65.771640 317.297448,63.750771 314.770654,59.744865"/>
    <poly id="1030819551" type="building.house" color="255,230,230" fill="1" layer="-1.00" shape="312.873064,77.978006 314.686087,81.757854 319.937402,79.265335 318.124478,75.496553 312.873064,77.978006"/>
    <poly id="1030819552" type="building.house" color="255,230,230" fill="1" layer="-1.00" shape="309.166862,84.440895 310.422255,87.362479 316.879042,84.604695 315.612965,81.694273 309.166862,84.440895"/>
    <poly id="1030819553" type="building.house" color="255,230,230" fill="1" layer="-1.00" shape="316.266366,82.407815 319.408984,88.964716 322.888424,87.317984 319.735024,80.761179 316.266366,82.407815"/>
    <poly id="1030819554" type="building.house" color="255,230,230" fill="1" layer="-1.00" shape="304.657070,76.944397 301.219482,78.446888 304.422027,85.678341 307.859514,84.164784 304.657070,76.944397"/>
    <poly id="1030819555" type="building.house" color="255,230,230" fill="1" layer="-1.00" shape="310.052953,73.731236 305.004652,76.011678 308.172285,82.955700 313.220586,80.675259 310.052953,73.731236"/>