<?xml version="1.0" encoding="UTF-8"?>

<!-- generated on 2025-10-02 19:04:20.710986 by randomTrips.py v1_24_0+0000-b72eb3fabc8
<configuration>
    <net-file value="osm.net.xml.gz"/>
    <output-trip-file value="osm.bus.trips.xml"/>
    <route-file value="osm.bus.rou.xml"/>
    <prefix value="bus"/>
    <trip-attributes value="departLane=&quot;best&quot;"/>
    <fringe-start-attributes value="departSpeed=&quot;max&quot;"/>
    <vehicle-class value="bus"/>
    <fringe-factor value="5"/>
    <edge-permission value="bus"/>
    <via-edge-types value="highway.motorway,highway.motorway_link,highway.trunk_link,highway.primary_link,highway.secondary_link,highway.tertiary_link"/>
    <min-distance value="600.0"/>
    <min-distance.fringe value="10.0"/>
    <remove-loops value="True"/>
    <insertion-density value="4.0"/>
</configuration>
-->

<routes xmlns:xsi="http://www.w3.org/2001/XMLSchema-instance" xsi:noNamespaceSchemaLocation="http://sumo.dlr.de/xsd/routes_file.xsd">
    <vType id="bus_bus" vClass="bus"/>
    <trip id="bus0" depart="0.00" from="580815653#0" to="183689805#0" departLane="best" type="bus_bus" departSpeed="max"/>
    <trip id="bus1" depart="122.51" from="580815653#0" to="624604434" departLane="best" type="bus_bus" departSpeed="max"/>
    <trip id="bus2" depart="245.02" from="870991319#0" to="683268248#0" departLane="best" type="bus_bus" departSpeed="max"/>
    <trip id="bus3" depart="367.53" from="870991319#0" to="683268248#0" departLane="best" type="bus_bus" departSpeed="max"/>
    <trip id="bus4" depart="490.05" from="870991319#0" to="683268248#0" departLane="best" type="bus_bus" departSpeed="max"/>
    <trip id="bus5" depart="612.56" from="-678188678" to="683268248#0" departLane="best" type="bus_bus" departSpeed="max"/>
    <trip id="bus6" depart="735.07" from="366949696" to="683268248#0" departLane="best" type="bus_bus" departSpeed="max"/>
    <trip id="bus7" depart="857.58" from="580815653#0" to="624604434" departLane="best" type="bus_bus" departSpeed="max"/>
    <trip id="bus8" depart="980.09" from="580815653#0" to="624604434" departLane="best" type="bus_bus" departSpeed="max"/>
    <trip id="bus9" depart="1102.60" from="580815653#0" to="427550891#0" departLane="best" type="bus_bus" departSpeed="max"/>
    <trip id="bus10" depart="1225.11" from="580815653#0" to="427550891#0" departLane="best" type="bus_bus" departSpeed="max"/>
    <trip id="bus11" depart="1347.62" from="870991319#0" to="683268248#0" departLane="best" type="bus_bus" departSpeed="max"/>
    <trip id="bus12" depart="1470.14" from="580815653#0" to="183689805#0" departLane="best" type="bus_bus" departSpeed="max"/>
    <trip id="bus13" depart="1592.65" from="366949696" to="683268248#0" departLane="best" type="bus_bus" departSpeed="max"/>
    <trip id="bus14" depart="1715.16" from="580815653#0" to="427550891#0" departLane="best" type="bus_bus" departSpeed="max"/>
    <trip id="bus15" depart="1837.67" from="-678188678" to="683268248#0" departLane="best" type="bus_bus" departSpeed="max"/>
    <trip id="bus16" depart="1960.18" from="366949696" to="683268248#0" departLane="best" type="bus_bus" departSpeed="max"/>
    <trip id="bus17" depart="2082.69" from="580815653#0" to="183689805#0" departLane="best" type="bus_bus" departSpeed="max"/>
    <trip id="bus18" depart="2205.20" from="580815653#0" to="427550891#0" departLane="best" type="bus_bus" departSpeed="max"/>
    <trip id="bus19" depart="2327.72" from="366949696" to="683268248#0" departLane="best" type="bus_bus" departSpeed="max"/>
    <trip id="bus20" depart="2450.23" from="580815653#0" to="624604434" departLane="best" type="bus_bus" departSpeed="max"/>
    <trip id="bus21" depart="2572.74" from="580815653#0" to="183689805#0" departLane="best" type="bus_bus" departSpeed="max"/>
    <trip id="bus22" depart="2695.25" from="580815653#0" to="624604434" departLane="best" type="bus_bus" departSpeed="max"/>
    <trip id="bus23" depart="2817.76" from="-678188678" to="683268248#0" departLane="best" type="bus_bus" departSpeed="max"/>
    <trip id="bus24" depart="2940.27" from="580815653#0" to="427550891#0" departLane="best" type="bus_bus" departSpeed="max"/>
    <trip id="bus25" depart="3062.78" from="366949696" to="683268248#0" departLane="best" type="bus_bus" departSpeed="max"/>
    <trip id="bus26" depart="3185.29" from="366949696" to="683268248#0" departLane="best" type="bus_bus" departSpeed="max"/>
    <trip id="bus27" depart="3307.81" from="580815653#0" to="183689805#0" departLane="best" type="bus_bus" departSpeed="max"/>
    <trip id="bus28" depart="3430.32" from="366949696" to="683268248#0" departLane="best" type="bus_bus" departSpeed="max"/>
    <trip id="bus29" depart="3552.83" from="580815653#0" to="624604434" departLane="best" type="bus_bus" departSpeed="max"/>
</routes>
