<?xml version="1.0" encoding="UTF-8"?>

<!-- generated on 2025-09-17 21:53:44.189166 by randomTrips.py v1_24_0+0000-b72eb3fabc8
<configuration>
    <net-file value="osm.net.xml.gz"/>
    <output-trip-file value="osm.passenger.trips.xml"/>
    <route-file value="osm.passenger.rou.xml"/>
    <prefix value="veh"/>
    <trip-attributes value="departLane=&quot;best&quot;"/>
    <fringe-start-attributes value="departSpeed=&quot;max&quot;"/>
    <vehicle-class value="passenger"/>
    <lanes value="True"/>
    <fringe-factor value="5"/>
    <allow-fringe.min-length value="1000.0"/>
    <edge-permission value="passenger"/>
    <via-edge-types value="highway.motorway,highway.motorway_link,highway.trunk_link,highway.primary_link,highway.secondary_link,highway.tertiary_link"/>
    <seed value="44"/>
    <min-distance value="300.0"/>
    <min-distance.fringe value="10.0"/>
    <remove-loops value="True"/>
    <insertion-density value="12.0"/>
</configuration>
-->

<!-- generated on 2025-09-17 21:53:44 by Eclipse SUMO duarouter Version 1.24.0
<duarouterConfiguration xmlns:xsi="http://www.w3.org/2001/XMLSchema-instance" xsi:noNamespaceSchemaLocation="http://sumo.dlr.de/xsd/duarouterConfiguration.xsd">

    <input>
        <net-file value="osm.net.xml.gz"/>
        <route-files value="osm.passenger.trips.xml"/>
    </input>

    <output>
        <output-file value="osm.passenger.rou.xml"/>
        <alternatives-output value="NUL"/>
    </output>

    <processing>
        <remove-loops value="true"/>
    </processing>

    <time>
        <begin value="0.0"/>
        <end value="3600.0"/>
    </time>

    <report>
        <no-warnings value="true"/>
        <ignore-errors value="true"/>
        <no-step-log value="true"/>
    </report>

</duarouterConfiguration>
-->

<routes xmlns:xsi="http://www.w3.org/2001/XMLSchema-instance" xsi:noNamespaceSchemaLocation="http://sumo.dlr.de/xsd/routes_file.xsd">
    <vType id="veh_passenger" vClass="passenger"/>
    <vehicle id="veh0" type="veh_passenger" depart="0.00" departLane="best">
        <route edges="573710409#0 683268248#0"/>
    </vehicle>
    <vehicle id="veh1" type="veh_passenger" depart="41.97" departLane="best" departSpeed="max">
        <route edges="870991319#0 624604435#0 366952449#0"/>
    </vehicle>
    <vehicle id="veh2" type="veh_passenger" depart="83.94" departLane="best" departSpeed="max">
        <route edges="366949696 427550891#0"/>
    </vehicle>
    <vehicle id="veh3" type="veh_passenger" depart="125.91" departLane="best" departSpeed="max">
        <route edges="651079990 642898747 683268248#0"/>
    </vehicle>
    <vehicle id="veh4" type="veh_passenger" depart="167.87" departLane="best" departSpeed="max">
        <route edges="580815653#0 183689805#0 1054125801"/>
    </vehicle>
    <vehicle id="veh5" type="veh_passenger" depart="209.84" departLane="best" departSpeed="max">
        <route edges="580815653#0 158466192#0 624604436 852188473 561748193 624604434"/>
    </vehicle>
    <vehicle id="veh6" type="veh_passenger" depart="251.81" departLane="best">
        <route edges="561748193 561748189 573710409#0 683268248#0"/>
    </vehicle>
    <vehicle id="veh7" type="veh_passenger" depart="293.78" departLane="best" departSpeed="max">
        <route edges="366949696 561748189 573710409#0 366952449#0"/>
    </vehicle>
    <vehicle id="veh8" type="veh_passenger" depart="335.75" departLane="best">
        <route edges="642898747 158466192#0 624604436 852188473 561748193 624604434"/>
    </vehicle>
    <vehicle id="veh9" type="veh_passenger" depart="377.72" departLane="best" departSpeed="max">
        <route edges="366949696 561748189 573710409#0 366952449#0"/>
    </vehicle>
    <vehicle id="veh10" type="veh_passenger" depart="419.68" departLane="best">
        <route edges="561748193 561748189 573710409#0 683268248#0"/>
    </vehicle>
    <vehicle id="veh11" type="veh_passenger" depart="461.65" departLane="best" departSpeed="max">
        <route edges="580815653#0 183689805#0 1054125801"/>
    </vehicle>
    <vehicle id="veh12" type="veh_passenger" depart="503.62" departLane="best" departSpeed="max">
        <route edges="366949696 561748189 573710409#0 158466192#0"/>
    </vehicle>
    <vehicle id="veh13" type="veh_passenger" depart="545.59" departLane="best" departSpeed="max">
        <route edges="580815653#0 158466192#0 624604436 852188473 561748193 624604434"/>
    </vehicle>
    <vehicle id="veh14" type="veh_passenger" depart="587.56" departLane="best" departSpeed="max">
        <route edges="580815653#0 158466192#0 624604436 852188473 561748193 427550891#0"/>
    </vehicle>
    <vehicle id="veh15" type="veh_passenger" depart="629.53" departLane="best">
        <route edges="158466192#0 624604436 852188473 561748193 624604434"/>
    </vehicle>
    <vehicle id="veh16" type="veh_passenger" depart="671.49" departLane="best">
        <route edges="573710409#0 683268248#0"/>
    </vehicle>
    <vehicle id="veh17" type="veh_passenger" depart="713.46" departLane="best" departSpeed="max">
        <route edges="580815653#0 158466192#0"/>
    </vehicle>
    <vehicle id="veh18" type="veh_passenger" depart="755.43" departLane="best" departSpeed="max">
        <route edges="366949696 427550891#0"/>
    </vehicle>
    <vehicle id="veh19" type="veh_passenger" depart="797.40" departLane="best" departSpeed="max">
        <route edges="580815653#0 158466192#0 624604436 852188473 561748193 624604434"/>
    </vehicle>
    <vehicle id="veh20" type="veh_passenger" depart="839.37" departLane="best" departSpeed="max">
        <route edges="651079990 642898747 158466192#0 624604436 852188473 561748193 624604434"/>
    </vehicle>
    <vehicle id="veh21" type="veh_passenger" depart="881.34" departLane="best" departSpeed="max">
        <route edges="366949696 561748189 573710409#0 366952449#0"/>
    </vehicle>
    <vehicle id="veh22" type="veh_passenger" depart="923.31" departLane="best" departSpeed="max">
        <route edges="366949696 561748189 573710409#0"/>
    </vehicle>
    <vehicle id="veh23" type="veh_passenger" depart="965.27" departLane="best" departSpeed="max">
        <route edges="580815653#0 158466192#0 624604436"/>
    </vehicle>
    <vehicle id="veh24" type="veh_passenger" depart="1007.24" departLane="best">
        <route edges="561748189 573710409#0 366952449#0"/>
    </vehicle>
    <vehicle id="veh25" type="veh_passenger" depart="1049.21" departLane="best" departSpeed="max">
        <route edges="366949696 427550891#0"/>
    </vehicle>
    <vehicle id="veh26" type="veh_passenger" depart="1091.18" departLane="best" departSpeed="max">
        <route edges="366949696 427550891#0"/>
    </vehicle>
    <vehicle id="veh27" type="veh_passenger" depart="1133.15" departLane="best">
        <route edges="573710409#0 683268248#0"/>
    </vehicle>
    <vehicle id="veh28" type="veh_passenger" depart="1175.12" departLane="best" departSpeed="max">
        <route edges="366949696 561748189 573710409#0 683268248#0"/>
    </vehicle>
    <vehicle id="veh29" type="veh_passenger" depart="1217.08" departLane="best" departSpeed="max">
        <route edges="-678188678 561748189 573710409#0 683268248#0"/>
    </vehicle>
    <vehicle id="veh30" type="veh_passenger" depart="1259.05" departLane="best">
        <route edges="561748189 573710409#0 366952449#0"/>
    </vehicle>
    <vehicle id="veh31" type="veh_passenger" depart="1301.02" departLane="best" departSpeed="max">
        <route edges="580815653#0 183689805#0 1054125801"/>
    </vehicle>
    <vehicle id="veh32" type="veh_passenger" depart="1342.99" departLane="best" departSpeed="max">
        <route edges="580815653#0 158466192#0 624604436 852188473 561748193 427550891#0"/>
    </vehicle>
    <vehicle id="veh33" type="veh_passenger" depart="1384.96" departLane="best" departSpeed="max">
        <route edges="870991319#0 624604435#0 366952449#0"/>
    </vehicle>
    <vehicle id="veh34" type="veh_passenger" depart="1426.93" departLane="best" departSpeed="max">
        <route edges="366949696 561748189 573710409#0 683268248#0"/>
    </vehicle>
    <vehicle id="veh35" type="veh_passenger" depart="1468.90" departLane="best" departSpeed="max">
        <route edges="580815653#0 158466192#0 624604436 852188473 561748193"/>
    </vehicle>
    <vehicle id="veh36" type="veh_passenger" depart="1510.86" departLane="best">
        <route edges="561748189 573710409#0 366952449#0"/>
    </vehicle>
    <vehicle id="veh37" type="veh_passenger" depart="1552.83" departLane="best" departSpeed="max">
        <route edges="-678188678 561748189 573710409#0 183689805#0 1054125801"/>
    </vehicle>
    <vehicle id="veh38" type="veh_passenger" depart="1594.80" departLane="best">
        <route edges="624604436 852188473 561748193 624604434"/>
    </vehicle>
    <vehicle id="veh39" type="veh_passenger" depart="1636.77" departLane="best" departSpeed="max">
        <route edges="580815653#0 366952449#0"/>
    </vehicle>
    <vehicle id="veh40" type="veh_passenger" depart="1678.74" departLane="best" departSpeed="max">
        <route edges="366949696 427550891#0"/>
    </vehicle>
    <vehicle id="veh41" type="veh_passenger" depart="1720.71" departLane="best" departSpeed="max">
        <route edges="366949696 427550891#0"/>
    </vehicle>
    <vehicle id="veh42" type="veh_passenger" depart="1762.67" departLane="best">
        <route edges="158466192#0 624604436 852188473 561748193 624604434"/>
    </vehicle>
    <vehicle id="veh43" type="veh_passenger" depart="1804.64" departLane="best" departSpeed="max">
        <route edges="651079990 642898747 183689805#0 1054125801"/>
    </vehicle>
    <vehicle id="veh44" type="veh_passenger" depart="1846.61" departLane="best" departSpeed="max">
        <route edges="580815653#0 158466192#0 624604436 852188473 561748193 624604434"/>
    </vehicle>
    <vehicle id="veh45" type="veh_passenger" depart="1888.58" departLane="best" departSpeed="max">
        <route edges="580815653#0 158466192#0 624604436 852188473 561748193 624604434"/>
    </vehicle>
    <vehicle id="veh46" type="veh_passenger" depart="1930.55" departLane="best" departSpeed="max">
        <route edges="580815653#0 158466192#0 624604436 852188473 561748193 427550891#0"/>
    </vehicle>
    <vehicle id="veh47" type="veh_passenger" depart="1972.52" departLane="best">
        <route edges="561748193 427550891#0"/>
    </vehicle>
    <vehicle id="veh48" type="veh_passenger" depart="2014.48" departLane="best" departSpeed="max">
        <route edges="366949696 561748189 573710409#0 683268248#0"/>
    </vehicle>
    <vehicle id="veh49" type="veh_passenger" depart="2056.45" departLane="best" departSpeed="max">
        <route edges="580815653#0 158466192#0"/>
    </vehicle>
    <vehicle id="veh50" type="veh_passenger" depart="2098.42" departLane="best" departSpeed="max">
        <route edges="580815653#0 158466192#0"/>
    </vehicle>
    <vehicle id="veh51" type="veh_passenger" depart="2140.39" departLane="best">
        <route edges="573710409#0 683268248#0"/>
    </vehicle>
    <vehicle id="veh52" type="veh_passenger" depart="2182.36" departLane="best" departSpeed="max">
        <route edges="580815653#0 183689805#0 1054125801"/>
    </vehicle>
    <vehicle id="veh53" type="veh_passenger" depart="2224.33" departLane="best" departSpeed="max">
        <route edges="366949696 561748189 573710409#0 366952449#0"/>
    </vehicle>
    <vehicle id="veh54" type="veh_passenger" depart="2266.30" departLane="best">
        <route edges="642898747 158466192#0 624604436 852188473 561748193 624604434"/>
    </vehicle>
    <vehicle id="veh55" type="veh_passenger" depart="2308.26" departLane="best" departSpeed="max">
        <route edges="580815653#0 158466192#0 624604436 852188473 561748193 624604434"/>
    </vehicle>
    <vehicle id="veh56" type="veh_passenger" depart="2350.23" departLane="best" departSpeed="max">
        <route edges="651079990 642898747 158466192#0 624604436 852188473 561748193"/>
    </vehicle>
    <vehicle id="veh57" type="veh_passenger" depart="2392.20" departLane="best" departSpeed="max">
        <route edges="366949696 561748189 573710409#0"/>
    </vehicle>
    <vehicle id="veh58" type="veh_passenger" depart="2434.17" departLane="best" departSpeed="max">
        <route edges="580815653#0 158466192#0 624604436 852188473 561748193 427550891#0"/>
    </vehicle>
    <vehicle id="veh59" type="veh_passenger" depart="2476.14" departLane="best" departSpeed="max">
        <route edges="870991319#0 624604435#0 366952449#0"/>
    </vehicle>
    <vehicle id="veh60" type="veh_passenger" depart="2518.11" departLane="best" departSpeed="max">
        <route edges="366949696 561748189 573710409#0 683268248#0"/>
    </vehicle>
    <vehicle id="veh61" type="veh_passenger" depart="2560.07" departLane="best">
        <route edges="561748193 561748189 573710409#0 683268248#0"/>
    </vehicle>
    <vehicle id="veh62" type="veh_passenger" depart="2602.04" departLane="best" departSpeed="max">
        <route edges="366949696 561748189 573710409#0"/>
    </vehicle>
    <vehicle id="veh63" type="veh_passenger" depart="2644.01" departLane="best" departSpeed="max">
        <route edges="580815653#0 158466192#0 624604436 852188473 561748193 624604434"/>
    </vehicle>
    <vehicle id="veh64" type="veh_passenger" depart="2685.98" departLane="best" departSpeed="max">
        <route edges="366949696 561748189 573710409#0 158466192#0"/>
    </vehicle>
    <vehicle id="veh65" type="veh_passenger" depart="2727.95" departLane="best" departSpeed="max">
        <route edges="-678188678 561748189 573710409#0 183689805#0 1054125801"/>
    </vehicle>
    <vehicle id="veh66" type="veh_passenger" depart="2769.92" departLane="best" departSpeed="max">
        <route edges="366949696 427550891#0"/>
    </vehicle>
    <vehicle id="veh67" type="veh_passenger" depart="2811.88" departLane="best" departSpeed="max">
        <route edges="366949696 561748189 573710409#0 683268248#0"/>
    </vehicle>
    <vehicle id="veh68" type="veh_passenger" depart="2853.85" departLane="best" departSpeed="max">
        <route edges="870991319#0 624604435#0 683268248#0"/>
    </vehicle>
    <vehicle id="veh69" type="veh_passenger" depart="2895.82" departLane="best" departSpeed="max">
        <route edges="366949696 561748189 573710409#0 366952449#0"/>
    </vehicle>
    <vehicle id="veh70" type="veh_passenger" depart="2937.79" departLane="best" departSpeed="max">
        <route edges="366949696 427550891#0"/>
    </vehicle>
    <vehicle id="veh71" type="veh_passenger" depart="2979.76" departLane="best" departSpeed="max">
        <route edges="651079990 642898747 683268248#0"/>
    </vehicle>
    <vehicle id="veh72" type="veh_passenger" depart="3021.73" departLane="best" departSpeed="max">
        <route edges="580815653#0 158466192#0 624604436 852188473 561748193 624604434"/>
    </vehicle>
    <vehicle id="veh73" type="veh_passenger" depart="3063.70" departLane="best" departSpeed="max">
        <route edges="580815653#0 158466192#0 624604436 852188473 561748193 624604434"/>
    </vehicle>
    <vehicle id="veh74" type="veh_passenger" depart="3105.66" departLane="best" departSpeed="max">
        <route edges="366949696 561748189 573710409#0 683268248#0"/>
    </vehicle>
    <vehicle id="veh75" type="veh_passenger" depart="3147.63" departLane="best" departSpeed="max">
        <route edges="580815653#0 366952449#0"/>
    </vehicle>
    <vehicle id="veh76" type="veh_passenger" depart="3189.60" departLane="best" departSpeed="max">
        <route edges="366949696 561748189 573710409#0 366952449#0"/>
    </vehicle>
    <vehicle id="veh77" type="veh_passenger" depart="3231.57" departLane="best">
        <route edges="624604436 852188473 561748193 561748189 573710409#0 683268248#0"/>
    </vehicle>
    <vehicle id="veh78" type="veh_passenger" depart="3273.54" departLane="best" departSpeed="max">
        <route edges="580815653#0 183689805#0"/>
    </vehicle>
    <vehicle id="veh79" type="veh_passenger" depart="3315.51" departLane="best">
        <route edges="573710409#0 683268248#0"/>
    </vehicle>
    <vehicle id="veh80" type="veh_passenger" depart="3357.47" departLane="best">
        <route edges="573710409#0 683268248#0"/>
    </vehicle>
    <vehicle id="veh81" type="veh_passenger" depart="3399.44" departLane="best">
        <route edges="573710409#0 683268248#0"/>
    </vehicle>
    <vehicle id="veh82" type="veh_passenger" depart="3441.41" departLane="best" departSpeed="max">
        <route edges="366949696 561748189 573710409#0 683268248#0"/>
    </vehicle>
    <vehicle id="veh83" type="veh_passenger" depart="3483.38" departLane="best" departSpeed="max">
        <route edges="-678188678 624604434"/>
    </vehicle>
    <vehicle id="veh84" type="veh_passenger" depart="3525.35" departLane="best" departSpeed="max">
        <route edges="580815653#0 158466192#0 624604436"/>
    </vehicle>
    <vehicle id="veh85" type="veh_passenger" depart="3567.32" departLane="best" departSpeed="max">
        <route edges="580815653#0 366952449#0"/>
    </vehicle>
</routes>
