<?xml version="1.0" encoding="UTF-8"?>

<!-- generated on 2025-10-02 19:04:22.416645 by randomTrips.py v1_24_0+0000-b72eb3fabc8
<configuration>
    <net-file value="osm.net.xml.gz"/>
    <output-trip-file value="osm.passenger.trips.xml"/>
    <route-file value="osm.passenger.rou.xml"/>
    <prefix value="veh"/>
    <trip-attributes value="departLane=&quot;best&quot;"/>
    <fringe-start-attributes value="departSpeed=&quot;max&quot;"/>
    <vehicle-class value="passenger"/>
    <lanes value="True"/>
    <fringe-factor value="5"/>
    <allow-fringe.min-length value="1000.0"/>
    <edge-permission value="passenger"/>
    <via-edge-types value="highway.motorway,highway.motorway_link,highway.trunk_link,highway.primary_link,highway.secondary_link,highway.tertiary_link"/>
    <seed value="44"/>
    <min-distance value="300.0"/>
    <min-distance.fringe value="10.0"/>
    <remove-loops value="True"/>
    <insertion-density value="12.0"/>
</configuration>
-->

<routes xmlns:xsi="http://www.w3.org/2001/XMLSchema-instance" xsi:noNamespaceSchemaLocation="http://sumo.dlr.de/xsd/routes_file.xsd">
    <vType id="veh_passenger" vClass="passenger"/>
    <trip id="veh0" depart="0.00" from="580815653#0" to="624604434" departLane="best" type="veh_passenger" departSpeed="max"/>
    <trip id="veh1" depart="40.84" from="561748193" to="624604434" departLane="best" type="veh_passenger"/>
    <trip id="veh2" depart="81.67" from="158466192#0" to="683268248#0" departLane="best" type="veh_passenger"/>
    <trip id="veh3" depart="122.51" from="-678188678" to="183689805#0" departLane="best" type="veh_passenger" departSpeed="max"/>
    <trip id="veh4" depart="163.35" from="870991319#0" to="366952449#0" departLane="best" type="veh_passenger" departSpeed="max"/>
    <trip id="veh5" depart="204.19" from="366949696" to="427550891#0" departLane="best" type="veh_passenger" departSpeed="max"/>
    <trip id="veh6" depart="245.02" from="651079990" to="683268248#0" departLane="best" type="veh_passenger" departSpeed="max"/>
    <trip id="veh7" depart="285.86" from="580815653#0" to="183689805#0" departLane="best" type="veh_passenger" departSpeed="max"/>
    <trip id="veh8" depart="326.70" from="580815653#0" to="624604434" departLane="best" type="veh_passenger" departSpeed="max"/>
    <trip id="veh9" depart="367.53" from="561748189" to="683268248#0" departLane="best" type="veh_passenger"/>
    <trip id="veh10" depart="408.37" from="366949696" to="366952449#0" departLane="best" type="veh_passenger" departSpeed="max"/>
    <trip id="veh11" depart="449.21" from="651079990" to="624604434" departLane="best" type="veh_passenger" departSpeed="max"/>
    <trip id="veh12" depart="490.05" from="366949696" to="366952449#0" departLane="best" type="veh_passenger" departSpeed="max"/>
    <trip id="veh13" depart="530.88" from="561748189" to="683268248#0" departLane="best" type="veh_passenger"/>
    <trip id="veh14" depart="571.72" from="580815653#0" to="183689805#0" departLane="best" type="veh_passenger" departSpeed="max"/>
    <trip id="veh15" depart="612.56" from="580815653#0" to="183689805#0" departLane="best" type="veh_passenger" departSpeed="max"/>
    <trip id="veh16" depart="653.39" from="580815653#0" to="624604434" departLane="best" type="veh_passenger" departSpeed="max"/>
    <trip id="veh17" depart="694.23" from="580815653#0" to="427550891#0" departLane="best" type="veh_passenger" departSpeed="max"/>
    <trip id="veh18" depart="735.07" from="158466192#0" to="624604434" departLane="best" type="veh_passenger"/>
    <trip id="veh19" depart="775.91" from="651079990" to="683268248#0" departLane="best" type="veh_passenger" departSpeed="max"/>
    <trip id="veh20" depart="816.74" from="158466192#0" to="683268248#0" departLane="best" type="veh_passenger"/>
    <trip id="veh21" depart="857.58" from="580815653#0" to="183689805#0" departLane="best" type="veh_passenger" departSpeed="max"/>
    <trip id="veh22" depart="898.42" from="366949696" to="366952449#0" departLane="best" type="veh_passenger" departSpeed="max"/>
    <trip id="veh23" depart="939.25" from="580815653#0" to="624604434" departLane="best" type="veh_passenger" departSpeed="max"/>
    <trip id="veh24" depart="980.09" from="158466192#0" to="683268248#0" departLane="best" type="veh_passenger"/>
    <trip id="veh25" depart="1020.93" from="651079990" to="624604434" departLane="best" type="veh_passenger" departSpeed="max"/>
    <trip id="veh26" depart="1061.76" from="366949696" to="366952449#0" departLane="best" type="veh_passenger" departSpeed="max"/>
    <trip id="veh27" depart="1102.60" from="366949696" to="366952449#0" departLane="best" type="veh_passenger" departSpeed="max"/>
    <trip id="veh28" depart="1143.44" from="-678188678" to="183689805#0" departLane="best" type="veh_passenger" departSpeed="max"/>
    <trip id="veh29" depart="1184.28" from="366949696" to="427550891#0" departLane="best" type="veh_passenger" departSpeed="max"/>
    <trip id="veh30" depart="1225.11" from="366949696" to="427550891#0" departLane="best" type="veh_passenger" departSpeed="max"/>
    <trip id="veh31" depart="1265.95" from="561748193" to="624604434" departLane="best" type="veh_passenger"/>
    <trip id="veh32" depart="1306.79" from="366949696" to="683268248#0" departLane="best" type="veh_passenger" departSpeed="max"/>
    <trip id="veh33" depart="1347.62" from="-678188678" to="683268248#0" departLane="best" type="veh_passenger" departSpeed="max"/>
    <trip id="veh34" depart="1388.46" from="366949696" to="366952449#0" departLane="best" type="veh_passenger" departSpeed="max"/>
    <trip id="veh35" depart="1429.30" from="580815653#0" to="158466192#0" departLane="best" type="veh_passenger" departSpeed="max"/>
    <trip id="veh36" depart="1470.14" from="580815653#0" to="427550891#0" departLane="best" type="veh_passenger" departSpeed="max"/>
    <trip id="veh37" depart="1510.97" from="870991319#0" to="366952449#0" departLane="best" type="veh_passenger" departSpeed="max"/>
    <trip id="veh38" depart="1551.81" from="366949696" to="683268248#0" departLane="best" type="veh_passenger" departSpeed="max"/>
    <trip id="veh39" depart="1592.65" from="580815653#0" to="561748193" departLane="best" type="veh_passenger" departSpeed="max"/>
    <trip id="veh40" depart="1633.48" from="561748189" to="366952449#0" departLane="best" type="veh_passenger"/>
    <trip id="veh41" depart="1674.32" from="642898747" to="624604434" departLane="best" type="veh_passenger"/>
    <trip id="veh42" depart="1715.16" from="561748193" to="683268248#0" departLane="best" type="veh_passenger"/>
    <trip id="veh43" depart="1756.00" from="580815653#0" to="366952449#0" departLane="best" type="veh_passenger" departSpeed="max"/>
    <trip id="veh44" depart="1796.83" from="366949696" to="427550891#0" departLane="best" type="veh_passenger" departSpeed="max"/>
    <trip id="veh45" depart="1837.67" from="366949696" to="366952449#0" departLane="best" type="veh_passenger" departSpeed="max"/>
    <trip id="veh46" depart="1878.51" from="158466192#0" to="624604434" departLane="best" type="veh_passenger"/>
    <trip id="veh47" depart="1919.34" from="651079990" to="624604434" departLane="best" type="veh_passenger" departSpeed="max"/>
    <trip id="veh48" depart="1960.18" from="580815653#0" to="624604434" departLane="best" type="veh_passenger" departSpeed="max"/>
    <trip id="veh49" depart="2001.02" from="580815653#0" to="624604434" departLane="best" type="veh_passenger" departSpeed="max"/>
    <trip id="veh50" depart="2041.86" from="580815653#0" to="366952449#0" departLane="best" type="veh_passenger" departSpeed="max"/>
    <trip id="veh51" depart="2082.69" from="-678188678" to="183689805#0" departLane="best" type="veh_passenger" departSpeed="max"/>
    <trip id="veh52" depart="2123.53" from="366949696" to="683268248#0" departLane="best" type="veh_passenger" departSpeed="max"/>
    <trip id="veh53" depart="2164.37" from="366949696" to="683268248#0" departLane="best" type="veh_passenger" departSpeed="max"/>
    <trip id="veh54" depart="2205.20" from="580815653#0" to="624604434" departLane="best" type="veh_passenger" departSpeed="max"/>
    <trip id="veh55" depart="2246.04" from="580815653#0" to="561748193" departLane="best" type="veh_passenger" departSpeed="max"/>
    <trip id="veh56" depart="2286.88" from="158466192#0" to="683268248#0" departLane="best" type="veh_passenger"/>
    <trip id="veh57" depart="2327.72" from="642898747" to="683268248#0" departLane="best" type="veh_passenger"/>
    <trip id="veh58" depart="2368.55" from="580815653#0" to="158466192#0" departLane="best" type="veh_passenger" departSpeed="max"/>
    <trip id="veh59" depart="2409.39" from="366949696" to="366952449#0" departLane="best" type="veh_passenger" departSpeed="max"/>
    <trip id="veh60" depart="2450.23" from="651079990" to="624604434" departLane="best" type="veh_passenger" departSpeed="max"/>
    <trip id="veh61" depart="2491.06" from="580815653#0" to="624604434" departLane="best" type="veh_passenger" departSpeed="max"/>
    <trip id="veh62" depart="2531.90" from="651079990" to="561748193" departLane="best" type="veh_passenger" departSpeed="max"/>
    <trip id="veh63" depart="2572.74" from="580815653#0" to="366952449#0" departLane="best" type="veh_passenger" departSpeed="max"/>
    <trip id="veh64" depart="2613.57" from="158466192#0" to="683268248#0" departLane="best" type="veh_passenger"/>
    <trip id="veh65" depart="2654.41" from="366949696" to="683268248#0" departLane="best" type="veh_passenger" departSpeed="max"/>
    <trip id="veh66" depart="2695.25" from="870991319#0" to="366952449#0" departLane="best" type="veh_passenger" departSpeed="max"/>
    <trip id="veh67" depart="2736.09" from="366949696" to="683268248#0" departLane="best" type="veh_passenger" departSpeed="max"/>
    <trip id="veh68" depart="2776.92" from="561748193" to="683268248#0" departLane="best" type="veh_passenger"/>
    <trip id="veh69" depart="2817.76" from="-678188678" to="624604434" departLane="best" type="veh_passenger" departSpeed="max"/>
    <trip id="veh70" depart="2858.60" from="366949696" to="561748189" departLane="best" type="veh_passenger" departSpeed="max"/>
    <trip id="veh71" depart="2899.43" from="580815653#0" to="624604434" departLane="best" type="veh_passenger" departSpeed="max"/>
    <trip id="veh72" depart="2940.27" from="767517245" to="775185678" departLane="best" type="veh_passenger" departSpeed="max"/>
    <trip id="veh73" depart="2981.11" from="-678188678" to="183689805#0" departLane="best" type="veh_passenger" departSpeed="max"/>
    <trip id="veh74" depart="3021.95" from="366949696" to="366952449#0" departLane="best" type="veh_passenger" departSpeed="max"/>
    <trip id="veh75" depart="3062.78" from="366949696" to="683268248#0" departLane="best" type="veh_passenger" departSpeed="max"/>
    <trip id="veh76" depart="3103.62" from="366949696" to="683268248#0" departLane="best" type="veh_passenger" departSpeed="max"/>
    <trip id="veh77" depart="3144.46" from="870991319#0" to="683268248#0" departLane="best" type="veh_passenger" departSpeed="max"/>
    <trip id="veh78" depart="3185.29" from="366949696" to="366952449#0" departLane="best" type="veh_passenger" departSpeed="max"/>
    <trip id="veh79" depart="3226.13" from="366949696" to="427550891#0" departLane="best" type="veh_passenger" departSpeed="max"/>
    <trip id="veh80" depart="3266.97" from="580815653#0" to="624604434" departLane="best" type="veh_passenger" departSpeed="max"/>
    <trip id="veh81" depart="3307.81" from="580815653#0" to="624604434" departLane="best" type="veh_passenger" departSpeed="max"/>
    <trip id="veh82" depart="3348.64" from="366949696" to="683268248#0" departLane="best" type="veh_passenger" departSpeed="max"/>
    <trip id="veh83" depart="3389.48" from="580815653#0" to="366952449#0" departLane="best" type="veh_passenger" departSpeed="max"/>
    <trip id="veh84" depart="3430.32" from="366949696" to="366952449#0" departLane="best" type="veh_passenger" departSpeed="max"/>
    <trip id="veh85" depart="3471.15" from="624604435#0" to="683268248#0" departLane="best" type="veh_passenger"/>
    <trip id="veh86" depart="3511.99" from="651079990" to="624604434" departLane="best" type="veh_passenger" departSpeed="max"/>
    <trip id="veh87" depart="3552.83" from="767517245" to="775185678" departLane="best" type="veh_passenger" departSpeed="max"/>
    <trip id="veh88" depart="3593.67" from="580815653#0" to="183689805#0" departLane="best" type="veh_passenger" departSpeed="max"/>
</routes>
