<?xml version="1.0" encoding="UTF-8"?>

<!-- generated on 2025-10-02 19:04:20.852454 by randomTrips.py v1_24_0+0000-b72eb3fabc8
<configuration>
    <net-file value="osm.net.xml.gz"/>
    <output-trip-file value="osm.bus.trips.xml"/>
    <route-file value="osm.bus.rou.xml"/>
    <prefix value="bus"/>
    <trip-attributes value="departLane=&quot;best&quot;"/>
    <fringe-start-attributes value="departSpeed=&quot;max&quot;"/>
    <vehicle-class value="bus"/>
    <fringe-factor value="5"/>
    <edge-permission value="bus"/>
    <via-edge-types value="highway.motorway,highway.motorway_link,highway.trunk_link,highway.primary_link,highway.secondary_link,highway.tertiary_link"/>
    <min-distance value="600.0"/>
    <min-distance.fringe value="10.0"/>
    <remove-loops value="True"/>
    <insertion-density value="4.0"/>
</configuration>
-->

<!-- generated on 2025-10-02 19:04:20 by Eclipse SUMO duarouter Version 1.24.0
<duarouterConfiguration xmlns:xsi="http://www.w3.org/2001/XMLSchema-instance" xsi:noNamespaceSchemaLocation="http://sumo.dlr.de/xsd/duarouterConfiguration.xsd">

    <input>
        <net-file value="osm.net.xml.gz"/>
        <route-files value="osm.bus.trips.xml"/>
    </input>

    <output>
        <output-file value="osm.bus.rou.xml"/>
        <alternatives-output value="NUL"/>
    </output>

    <processing>
        <remove-loops value="true"/>
    </processing>

    <time>
        <begin value="0.0"/>
        <end value="3600.0"/>
    </time>

    <report>
        <no-warnings value="true"/>
        <ignore-errors value="true"/>
        <no-step-log value="true"/>
    </report>

</duarouterConfiguration>
-->

<routes xmlns:xsi="http://www.w3.org/2001/XMLSchema-instance" xsi:noNamespaceSchemaLocation="http://sumo.dlr.de/xsd/routes_file.xsd">
    <vType id="bus_bus" vClass="bus"/>
    <vehicle id="bus0" type="bus_bus" depart="0.00" departLane="best" departSpeed="max">
        <route edges="580815653#0 183689805#0"/>
    </vehicle>
    <vehicle id="bus1" type="bus_bus" depart="122.51" departLane="best" departSpeed="max">
        <route edges="580815653#0 158466192#0 561748193 624604434"/>
    </vehicle>
    <vehicle id="bus2" type="bus_bus" depart="245.02" departLane="best" departSpeed="max">
        <route edges="870991319#0 624604435#0 683268248#0"/>
    </vehicle>
    <vehicle id="bus3" type="bus_bus" depart="367.53" departLane="best" departSpeed="max">
        <route edges="870991319#0 624604435#0 683268248#0"/>
    </vehicle>
    <vehicle id="bus4" type="bus_bus" depart="490.05" departLane="best" departSpeed="max">
        <route edges="870991319#0 624604435#0 683268248#0"/>
    </vehicle>
    <vehicle id="bus5" type="bus_bus" depart="612.56" departLane="best" departSpeed="max">
        <route edges="-678188678 561748189 683268248#0"/>
    </vehicle>
    <vehicle id="bus6" type="bus_bus" depart="735.07" departLane="best" departSpeed="max">
        <route edges="366949696 561748189 683268248#0"/>
    </vehicle>
    <vehicle id="bus7" type="bus_bus" depart="857.58" departLane="best" departSpeed="max">
        <route edges="580815653#0 158466192#0 561748193 624604434"/>
    </vehicle>
    <vehicle id="bus8" type="bus_bus" depart="980.09" departLane="best" departSpeed="max">
        <route edges="580815653#0 158466192#0 561748193 624604434"/>
    </vehicle>
    <vehicle id="bus9" type="bus_bus" depart="1102.60" departLane="best" departSpeed="max">
        <route edges="580815653#0 158466192#0 561748193 427550891#0"/>
    </vehicle>
    <vehicle id="bus10" type="bus_bus" depart="1225.11" departLane="best" departSpeed="max">
        <route edges="580815653#0 158466192#0 561748193 427550891#0"/>
    </vehicle>
    <vehicle id="bus11" type="bus_bus" depart="1347.62" departLane="best" departSpeed="max">
        <route edges="870991319#0 624604435#0 683268248#0"/>
    </vehicle>
    <vehicle id="bus12" type="bus_bus" depart="1470.14" departLane="best" departSpeed="max">
        <route edges="580815653#0 183689805#0"/>
    </vehicle>
    <vehicle id="bus13" type="bus_bus" depart="1592.65" departLane="best" departSpeed="max">
        <route edges="366949696 561748189 683268248#0"/>
    </vehicle>
    <vehicle id="bus14" type="bus_bus" depart="1715.16" departLane="best" departSpeed="max">
        <route edges="580815653#0 158466192#0 561748193 427550891#0"/>
    </vehicle>
    <vehicle id="bus15" type="bus_bus" depart="1837.67" departLane="best" departSpeed="max">
        <route edges="-678188678 561748189 683268248#0"/>
    </vehicle>
    <vehicle id="bus16" type="bus_bus" depart="1960.18" departLane="best" departSpeed="max">
        <route edges="366949696 561748189 683268248#0"/>
    </vehicle>
    <vehicle id="bus17" type="bus_bus" depart="2082.69" departLane="best" departSpeed="max">
        <route edges="580815653#0 183689805#0"/>
    </vehicle>
    <vehicle id="bus18" type="bus_bus" depart="2205.20" departLane="best" departSpeed="max">
        <route edges="580815653#0 158466192#0 561748193 427550891#0"/>
    </vehicle>
    <vehicle id="bus19" type="bus_bus" depart="2327.72" departLane="best" departSpeed="max">
        <route edges="366949696 561748189 683268248#0"/>
    </vehicle>
    <vehicle id="bus20" type="bus_bus" depart="2450.23" departLane="best" departSpeed="max">
        <route edges="580815653#0 158466192#0 561748193 624604434"/>
    </vehicle>
    <vehicle id="bus21" type="bus_bus" depart="2572.74" departLane="best" departSpeed="max">
        <route edges="580815653#0 183689805#0"/>
    </vehicle>
    <vehicle id="bus22" type="bus_bus" depart="2695.25" departLane="best" departSpeed="max">
        <route edges="580815653#0 158466192#0 561748193 624604434"/>
    </vehicle>
    <vehicle id="bus23" type="bus_bus" depart="2817.76" departLane="best" departSpeed="max">
        <route edges="-678188678 561748189 683268248#0"/>
    </vehicle>
    <vehicle id="bus24" type="bus_bus" depart="2940.27" departLane="best" departSpeed="max">
        <route edges="580815653#0 158466192#0 561748193 427550891#0"/>
    </vehicle>
    <vehicle id="bus25" type="bus_bus" depart="3062.78" departLane="best" departSpeed="max">
        <route edges="366949696 561748189 683268248#0"/>
    </vehicle>
    <vehicle id="bus26" type="bus_bus" depart="3185.29" departLane="best" departSpeed="max">
        <route edges="366949696 561748189 683268248#0"/>
    </vehicle>
    <vehicle id="bus27" type="bus_bus" depart="3307.81" departLane="best" departSpeed="max">
        <route edges="580815653#0 183689805#0"/>
    </vehicle>
    <vehicle id="bus28" type="bus_bus" depart="3430.32" departLane="best" departSpeed="max">
        <route edges="366949696 561748189 683268248#0"/>
    </vehicle>
    <vehicle id="bus29" type="bus_bus" depart="3552.83" departLane="best" departSpeed="max">
        <route edges="580815653#0 158466192#0 561748193 624604434"/>
    </vehicle>
</routes>
