<?xml version="1.0" encoding="UTF-8"?>

<!-- generated on 2025-09-17 21:53:44.062075 by randomTrips.py v1_24_0+0000-b72eb3fabc8
<configuration>
    <net-file value="osm.net.xml.gz"/>
    <output-trip-file value="osm.passenger.trips.xml"/>
    <route-file value="osm.passenger.rou.xml"/>
    <prefix value="veh"/>
    <trip-attributes value="departLane=&quot;best&quot;"/>
    <fringe-start-attributes value="departSpeed=&quot;max&quot;"/>
    <vehicle-class value="passenger"/>
    <lanes value="True"/>
    <fringe-factor value="5"/>
    <allow-fringe.min-length value="1000.0"/>
    <edge-permission value="passenger"/>
    <via-edge-types value="highway.motorway,highway.motorway_link,highway.trunk_link,highway.primary_link,highway.secondary_link,highway.tertiary_link"/>
    <seed value="44"/>
    <min-distance value="300.0"/>
    <min-distance.fringe value="10.0"/>
    <remove-loops value="True"/>
    <insertion-density value="12.0"/>
</configuration>
-->

<routes xmlns:xsi="http://www.w3.org/2001/XMLSchema-instance" xsi:noNamespaceSchemaLocation="http://sumo.dlr.de/xsd/routes_file.xsd">
    <vType id="veh_passenger" vClass="passenger"/>
    <trip id="veh0" depart="0.00" from="158466192#0" to="683268248#0" departLane="best" type="veh_passenger"/>
    <trip id="veh1" depart="41.97" from="870991319#0" to="366952449#0" departLane="best" type="veh_passenger" departSpeed="max"/>
    <trip id="veh2" depart="83.94" from="366949696" to="427550891#0" departLane="best" type="veh_passenger" departSpeed="max"/>
    <trip id="veh3" depart="125.91" from="651079990" to="683268248#0" departLane="best" type="veh_passenger" departSpeed="max"/>
    <trip id="veh4" depart="167.87" from="580815653#0" to="1054125801" departLane="best" type="veh_passenger" departSpeed="max"/>
    <trip id="veh5" depart="209.84" from="580815653#0" to="624604434" departLane="best" type="veh_passenger" departSpeed="max"/>
    <trip id="veh6" depart="251.81" from="561748193" to="683268248#0" departLane="best" type="veh_passenger"/>
    <trip id="veh7" depart="293.78" from="366949696" to="366952449#0" departLane="best" type="veh_passenger" departSpeed="max"/>
    <trip id="veh8" depart="335.75" from="642898747" to="624604434" departLane="best" type="veh_passenger"/>
    <trip id="veh9" depart="377.72" from="366949696" to="366952449#0" departLane="best" type="veh_passenger" departSpeed="max"/>
    <trip id="veh10" depart="419.68" from="561748193" to="683268248#0" departLane="best" type="veh_passenger"/>
    <trip id="veh11" depart="461.65" from="580815653#0" to="1054125801" departLane="best" type="veh_passenger" departSpeed="max"/>
    <trip id="veh12" depart="503.62" from="366949696" to="158466192#0" departLane="best" type="veh_passenger" departSpeed="max"/>
    <trip id="veh13" depart="545.59" from="580815653#0" to="624604434" departLane="best" type="veh_passenger" departSpeed="max"/>
    <trip id="veh14" depart="587.56" from="580815653#0" to="427550891#0" departLane="best" type="veh_passenger" departSpeed="max"/>
    <trip id="veh15" depart="629.53" from="158466192#0" to="624604434" departLane="best" type="veh_passenger"/>
    <trip id="veh16" depart="671.49" from="158466192#0" to="683268248#0" departLane="best" type="veh_passenger"/>
    <trip id="veh17" depart="713.46" from="580815653#0" to="158466192#0" departLane="best" type="veh_passenger" departSpeed="max"/>
    <trip id="veh18" depart="755.43" from="366949696" to="427550891#0" departLane="best" type="veh_passenger" departSpeed="max"/>
    <trip id="veh19" depart="797.40" from="580815653#0" to="624604434" departLane="best" type="veh_passenger" departSpeed="max"/>
    <trip id="veh20" depart="839.37" from="651079990" to="624604434" departLane="best" type="veh_passenger" departSpeed="max"/>
    <trip id="veh21" depart="881.34" from="366949696" to="366952449#0" departLane="best" type="veh_passenger" departSpeed="max"/>
    <trip id="veh22" depart="923.31" from="366949696" to="573710409#0" departLane="best" type="veh_passenger" departSpeed="max"/>
    <trip id="veh23" depart="965.27" from="580815653#0" to="624604436" departLane="best" type="veh_passenger" departSpeed="max"/>
    <trip id="veh24" depart="1007.24" from="561748189" to="366952449#0" departLane="best" type="veh_passenger"/>
    <trip id="veh25" depart="1049.21" from="366949696" to="427550891#0" departLane="best" type="veh_passenger" departSpeed="max"/>
    <trip id="veh26" depart="1091.18" from="366949696" to="427550891#0" departLane="best" type="veh_passenger" departSpeed="max"/>
    <trip id="veh27" depart="1133.15" from="573710409#0" to="683268248#0" departLane="best" type="veh_passenger"/>
    <trip id="veh28" depart="1175.12" from="366949696" to="683268248#0" departLane="best" type="veh_passenger" departSpeed="max"/>
    <trip id="veh29" depart="1217.08" from="-678188678" to="683268248#0" departLane="best" type="veh_passenger" departSpeed="max"/>
    <trip id="veh30" depart="1259.05" from="561748189" to="366952449#0" departLane="best" type="veh_passenger"/>
    <trip id="veh31" depart="1301.02" from="580815653#0" to="1054125801" departLane="best" type="veh_passenger" departSpeed="max"/>
    <trip id="veh32" depart="1342.99" from="580815653#0" to="427550891#0" departLane="best" type="veh_passenger" departSpeed="max"/>
    <trip id="veh33" depart="1384.96" from="870991319#0" to="366952449#0" departLane="best" type="veh_passenger" departSpeed="max"/>
    <trip id="veh34" depart="1426.93" from="366949696" to="683268248#0" departLane="best" type="veh_passenger" departSpeed="max"/>
    <trip id="veh35" depart="1468.90" from="580815653#0" to="561748193" departLane="best" type="veh_passenger" departSpeed="max"/>
    <trip id="veh36" depart="1510.86" from="561748189" to="366952449#0" departLane="best" type="veh_passenger"/>
    <trip id="veh37" depart="1552.83" from="-678188678" to="1054125801" departLane="best" type="veh_passenger" departSpeed="max"/>
    <trip id="veh38" depart="1594.80" from="624604436" to="624604434" departLane="best" type="veh_passenger"/>
    <trip id="veh39" depart="1636.77" from="580815653#0" to="366952449#0" departLane="best" type="veh_passenger" departSpeed="max"/>
    <trip id="veh40" depart="1678.74" from="366949696" to="427550891#0" departLane="best" type="veh_passenger" departSpeed="max"/>
    <trip id="veh41" depart="1720.71" from="366949696" to="427550891#0" departLane="best" type="veh_passenger" departSpeed="max"/>
    <trip id="veh42" depart="1762.67" from="158466192#0" to="624604434" departLane="best" type="veh_passenger"/>
    <trip id="veh43" depart="1804.64" from="651079990" to="1054125801" departLane="best" type="veh_passenger" departSpeed="max"/>
    <trip id="veh44" depart="1846.61" from="580815653#0" to="624604434" departLane="best" type="veh_passenger" departSpeed="max"/>
    <trip id="veh45" depart="1888.58" from="580815653#0" to="624604434" departLane="best" type="veh_passenger" departSpeed="max"/>
    <trip id="veh46" depart="1930.55" from="580815653#0" to="427550891#0" departLane="best" type="veh_passenger" departSpeed="max"/>
    <trip id="veh47" depart="1972.52" from="561748189" to="427550891#0" departLane="best" type="veh_passenger"/>
    <trip id="veh48" depart="2014.48" from="366949696" to="683268248#0" departLane="best" type="veh_passenger" departSpeed="max"/>
    <trip id="veh49" depart="2056.45" from="580815653#0" to="573710409#0" departLane="best" type="veh_passenger" departSpeed="max"/>
    <trip id="veh50" depart="2098.42" from="580815653#0" to="573710409#0" departLane="best" type="veh_passenger" departSpeed="max"/>
    <trip id="veh51" depart="2140.39" from="158466192#0" to="683268248#0" departLane="best" type="veh_passenger"/>
    <trip id="veh52" depart="2182.36" from="580815653#0" to="1054125801" departLane="best" type="veh_passenger" departSpeed="max"/>
    <trip id="veh53" depart="2224.33" from="366949696" to="366952449#0" departLane="best" type="veh_passenger" departSpeed="max"/>
    <trip id="veh54" depart="2266.30" from="642898747" to="624604434" departLane="best" type="veh_passenger"/>
    <trip id="veh55" depart="2308.26" from="580815653#0" to="624604434" departLane="best" type="veh_passenger" departSpeed="max"/>
    <trip id="veh56" depart="2350.23" from="651079990" to="561748193" departLane="best" type="veh_passenger" departSpeed="max"/>
    <trip id="veh57" depart="2392.20" from="366949696" to="573710409#0" departLane="best" type="veh_passenger" departSpeed="max"/>
    <trip id="veh58" depart="2434.17" from="580815653#0" to="427550891#0" departLane="best" type="veh_passenger" departSpeed="max"/>
    <trip id="veh59" depart="2476.14" from="870991319#0" to="366952449#0" departLane="best" type="veh_passenger" departSpeed="max"/>
    <trip id="veh60" depart="2518.11" from="366949696" to="683268248#0" departLane="best" type="veh_passenger" departSpeed="max"/>
    <trip id="veh61" depart="2560.07" from="561748193" to="683268248#0" departLane="best" type="veh_passenger"/>
    <trip id="veh62" depart="2602.04" from="366949696" to="573710409#0" departLane="best" type="veh_passenger" departSpeed="max"/>
    <trip id="veh63" depart="2644.01" from="580815653#0" to="624604434" departLane="best" type="veh_passenger" departSpeed="max"/>
    <trip id="veh64" depart="2685.98" from="366949696" to="158466192#0" departLane="best" type="veh_passenger" departSpeed="max"/>
    <trip id="veh65" depart="2727.95" from="-678188678" to="1054125801" departLane="best" type="veh_passenger" departSpeed="max"/>
    <trip id="veh66" depart="2769.92" from="366949696" to="427550891#0" departLane="best" type="veh_passenger" departSpeed="max"/>
    <trip id="veh67" depart="2811.88" from="366949696" to="683268248#0" departLane="best" type="veh_passenger" departSpeed="max"/>
    <trip id="veh68" depart="2853.85" from="870991319#0" to="683268248#0" departLane="best" type="veh_passenger" departSpeed="max"/>
    <trip id="veh69" depart="2895.82" from="366949696" to="366952449#0" departLane="best" type="veh_passenger" departSpeed="max"/>
    <trip id="veh70" depart="2937.79" from="366949696" to="427550891#0" departLane="best" type="veh_passenger" departSpeed="max"/>
    <trip id="veh71" depart="2979.76" from="651079990" to="683268248#0" departLane="best" type="veh_passenger" departSpeed="max"/>
    <trip id="veh72" depart="3021.73" from="580815653#0" to="624604434" departLane="best" type="veh_passenger" departSpeed="max"/>
    <trip id="veh73" depart="3063.70" from="580815653#0" to="624604434" departLane="best" type="veh_passenger" departSpeed="max"/>
    <trip id="veh74" depart="3105.66" from="366949696" to="683268248#0" departLane="best" type="veh_passenger" departSpeed="max"/>
    <trip id="veh75" depart="3147.63" from="580815653#0" to="366952449#0" departLane="best" type="veh_passenger" departSpeed="max"/>
    <trip id="veh76" depart="3189.60" from="366949696" to="366952449#0" departLane="best" type="veh_passenger" departSpeed="max"/>
    <trip id="veh77" depart="3231.57" from="624604436" to="683268248#0" departLane="best" type="veh_passenger"/>
    <trip id="veh78" depart="3273.54" from="580815653#0" to="183689805#0" departLane="best" type="veh_passenger" departSpeed="max"/>
    <trip id="veh79" depart="3315.51" from="573710409#0" to="683268248#0" departLane="best" type="veh_passenger"/>
    <trip id="veh80" depart="3357.47" from="573710409#0" to="683268248#0" departLane="best" type="veh_passenger"/>
    <trip id="veh81" depart="3399.44" from="573710409#0" to="683268248#0" departLane="best" type="veh_passenger"/>
    <trip id="veh82" depart="3441.41" from="366949696" to="683268248#0" departLane="best" type="veh_passenger" departSpeed="max"/>
    <trip id="veh83" depart="3483.38" from="-678188678" to="624604434" departLane="best" type="veh_passenger" departSpeed="max"/>
    <trip id="veh84" depart="3525.35" from="580815653#0" to="624604436" departLane="best" type="veh_passenger" departSpeed="max"/>
    <trip id="veh85" depart="3567.32" from="580815653#0" to="366952449#0" departLane="best" type="veh_passenger" departSpeed="max"/>
</routes>
