<?xml version="1.0" encoding="UTF-8"?>

<!-- generated on 2025-10-02 19:04:23.339477 by randomTrips.py v1_24_0+0000-b72eb3fabc8
<configuration>
    <net-file value="osm.net.xml.gz"/>
    <output-trip-file value="osm.truck.trips.xml"/>
    <route-file value="osm.truck.rou.xml"/>
    <prefix value="truck"/>
    <trip-attributes value="departLane=&quot;best&quot;"/>
    <fringe-start-attributes value="departSpeed=&quot;max&quot;"/>
    <vehicle-class value="truck"/>
    <fringe-factor value="5"/>
    <edge-permission value="truck"/>
    <via-edge-types value="highway.motorway,highway.motorway_link,highway.trunk_link,highway.primary_link,highway.secondary_link,highway.tertiary_link"/>
    <seed value="45"/>
    <min-distance value="600.0"/>
    <min-distance.fringe value="10.0"/>
    <remove-loops value="True"/>
    <insertion-density value="8.0"/>
</configuration>
-->

<!-- generated on 2025-10-02 19:04:23 by Eclipse SUMO duarouter Version 1.24.0
<duarouterConfiguration xmlns:xsi="http://www.w3.org/2001/XMLSchema-instance" xsi:noNamespaceSchemaLocation="http://sumo.dlr.de/xsd/duarouterConfiguration.xsd">

    <input>
        <net-file value="osm.net.xml.gz"/>
        <route-files value="osm.truck.trips.xml"/>
    </input>

    <output>
        <output-file value="osm.truck.rou.xml"/>
        <alternatives-output value="NUL"/>
    </output>

    <processing>
        <remove-loops value="true"/>
    </processing>

    <time>
        <begin value="0.0"/>
        <end value="3600.0"/>
    </time>

    <report>
        <no-warnings value="true"/>
        <ignore-errors value="true"/>
        <no-step-log value="true"/>
    </report>

</duarouterConfiguration>
-->

<routes xmlns:xsi="http://www.w3.org/2001/XMLSchema-instance" xsi:noNamespaceSchemaLocation="http://sumo.dlr.de/xsd/routes_file.xsd">
    <vType id="truck_truck" vClass="truck"/>
    <vehicle id="truck0" type="truck_truck" depart="0.00" departLane="best" departSpeed="max">
        <route edges="-678188678 561748189 683268248#0"/>
    </vehicle>
    <vehicle id="truck1" type="truck_truck" depart="61.26" departLane="best" departSpeed="max">
        <route edges="870991319#0 624604435#0 683268248#0"/>
    </vehicle>
    <vehicle id="truck2" type="truck_truck" depart="122.51" departLane="best" departSpeed="max">
        <route edges="580815653#0 158466192#0 561748193 427550891#0"/>
    </vehicle>
    <vehicle id="truck3" type="truck_truck" depart="183.77" departLane="best" departSpeed="max">
        <route edges="870991319#0 624604435#0 683268248#0"/>
    </vehicle>
    <vehicle id="truck4" type="truck_truck" depart="245.02" departLane="best" departSpeed="max">
        <route edges="-678188678 561748189 683268248#0"/>
    </vehicle>
    <vehicle id="truck5" type="truck_truck" depart="306.28" departLane="best" departSpeed="max">
        <route edges="580815653#0 158466192#0 561748193 427550891#0"/>
    </vehicle>
    <vehicle id="truck6" type="truck_truck" depart="367.53" departLane="best" departSpeed="max">
        <route edges="-678188678 561748189 683268248#0"/>
    </vehicle>
    <vehicle id="truck7" type="truck_truck" depart="428.79" departLane="best" departSpeed="max">
        <route edges="580815653#0 158466192#0 561748193 427550891#0"/>
    </vehicle>
    <vehicle id="truck8" type="truck_truck" depart="490.05" departLane="best" departSpeed="max">
        <route edges="580815653#0 158466192#0 561748193 427550891#0"/>
    </vehicle>
    <vehicle id="truck9" type="truck_truck" depart="551.30" departLane="best" departSpeed="max">
        <route edges="870991319#0 624604435#0 683268248#0"/>
    </vehicle>
    <vehicle id="truck10" type="truck_truck" depart="612.56" departLane="best" departSpeed="max">
        <route edges="366949696 561748189 683268248#0"/>
    </vehicle>
    <vehicle id="truck11" type="truck_truck" depart="673.81" departLane="best" departSpeed="max">
        <route edges="366949696 561748189 683268248#0"/>
    </vehicle>
    <vehicle id="truck12" type="truck_truck" depart="735.07" departLane="best" departSpeed="max">
        <route edges="580815653#0 158466192#0 561748193 624604434"/>
    </vehicle>
    <vehicle id="truck13" type="truck_truck" depart="796.32" departLane="best" departSpeed="max">
        <route edges="580815653#0 158466192#0 561748193 624604434"/>
    </vehicle>
    <vehicle id="truck14" type="truck_truck" depart="857.58" departLane="best" departSpeed="max">
        <route edges="870991319#0 624604435#0 683268248#0"/>
    </vehicle>
    <vehicle id="truck15" type="truck_truck" depart="918.83" departLane="best" departSpeed="max">
        <route edges="870991319#0 624604435#0 683268248#0"/>
    </vehicle>
    <vehicle id="truck16" type="truck_truck" depart="980.09" departLane="best" departSpeed="max">
        <route edges="870991319#0 624604435#0 683268248#0"/>
    </vehicle>
    <vehicle id="truck17" type="truck_truck" depart="1041.35" departLane="best" departSpeed="max">
        <route edges="-678188678 561748189 683268248#0"/>
    </vehicle>
    <vehicle id="truck18" type="truck_truck" depart="1102.60" departLane="best" departSpeed="max">
        <route edges="-678188678 561748189 683268248#0"/>
    </vehicle>
    <vehicle id="truck19" type="truck_truck" depart="1163.86" departLane="best" departSpeed="max">
        <route edges="-678188678 561748189 683268248#0"/>
    </vehicle>
    <vehicle id="truck20" type="truck_truck" depart="1225.11" departLane="best" departSpeed="max">
        <route edges="580815653#0 158466192#0 561748193"/>
    </vehicle>
    <vehicle id="truck21" type="truck_truck" depart="1286.37" departLane="best" departSpeed="max">
        <route edges="-678188678 561748189 683268248#0"/>
    </vehicle>
    <vehicle id="truck22" type="truck_truck" depart="1347.62" departLane="best" departSpeed="max">
        <route edges="366949696 561748189 683268248#0"/>
    </vehicle>
    <vehicle id="truck23" type="truck_truck" depart="1408.88" departLane="best" departSpeed="max">
        <route edges="366949696 561748189 683268248#0"/>
    </vehicle>
    <vehicle id="truck24" type="truck_truck" depart="1470.14" departLane="best" departSpeed="max">
        <route edges="366949696 561748189 683268248#0"/>
    </vehicle>
    <vehicle id="truck25" type="truck_truck" depart="1531.39" departLane="best" departSpeed="max">
        <route edges="366949696 561748189 683268248#0"/>
    </vehicle>
    <vehicle id="truck26" type="truck_truck" depart="1592.65" departLane="best" departSpeed="max">
        <route edges="-678188678 561748189 683268248#0"/>
    </vehicle>
    <vehicle id="truck27" type="truck_truck" depart="1653.90" departLane="best" departSpeed="max">
        <route edges="-678188678 561748189 683268248#0"/>
    </vehicle>
    <vehicle id="truck28" type="truck_truck" depart="1715.16" departLane="best" departSpeed="max">
        <route edges="-678188678 561748189 683268248#0"/>
    </vehicle>
    <vehicle id="truck29" type="truck_truck" depart="1776.41" departLane="best" departSpeed="max">
        <route edges="580815653#0 158466192#0 561748193 427550891#0"/>
    </vehicle>
    <vehicle id="truck30" type="truck_truck" depart="1837.67" departLane="best" departSpeed="max">
        <route edges="870991319#0 624604435#0 683268248#0"/>
    </vehicle>
    <vehicle id="truck31" type="truck_truck" depart="1898.93" departLane="best" departSpeed="max">
        <route edges="580815653#0 183689805#0"/>
    </vehicle>
    <vehicle id="truck32" type="truck_truck" depart="1960.18" departLane="best" departSpeed="max">
        <route edges="-678188678 561748189 683268248#0"/>
    </vehicle>
    <vehicle id="truck33" type="truck_truck" depart="2021.44" departLane="best" departSpeed="max">
        <route edges="-678188678 561748189 683268248#0"/>
    </vehicle>
    <vehicle id="truck34" type="truck_truck" depart="2082.69" departLane="best" departSpeed="max">
        <route edges="366949696 561748189 683268248#0"/>
    </vehicle>
    <vehicle id="truck35" type="truck_truck" depart="2143.95" departLane="best" departSpeed="max">
        <route edges="-678188678 561748189 683268248#0"/>
    </vehicle>
    <vehicle id="truck36" type="truck_truck" depart="2205.20" departLane="best" departSpeed="max">
        <route edges="870991319#0 624604435#0 683268248#0"/>
    </vehicle>
    <vehicle id="truck37" type="truck_truck" depart="2266.46" departLane="best" departSpeed="max">
        <route edges="-678188678 561748189 683268248#0"/>
    </vehicle>
    <vehicle id="truck38" type="truck_truck" depart="2327.72" departLane="best" departSpeed="max">
        <route edges="366949696 561748189 683268248#0"/>
    </vehicle>
    <vehicle id="truck39" type="truck_truck" depart="2388.97" departLane="best" departSpeed="max">
        <route edges="580815653#0 158466192#0 561748193 427550891#0"/>
    </vehicle>
    <vehicle id="truck40" type="truck_truck" depart="2450.23" departLane="best" departSpeed="max">
        <route edges="366949696 561748189 683268248#0"/>
    </vehicle>
    <vehicle id="truck41" type="truck_truck" depart="2511.48" departLane="best" departSpeed="max">
        <route edges="580815653#0 158466192#0 561748193 624604434"/>
    </vehicle>
    <vehicle id="truck42" type="truck_truck" depart="2572.74" departLane="best" departSpeed="max">
        <route edges="366949696 561748189 683268248#0"/>
    </vehicle>
    <vehicle id="truck43" type="truck_truck" depart="2633.99" departLane="best" departSpeed="max">
        <route edges="580815653#0 158466192#0 561748193 427550891#0"/>
    </vehicle>
    <vehicle id="truck44" type="truck_truck" depart="2695.25" departLane="best" departSpeed="max">
        <route edges="580815653#0 183689805#0"/>
    </vehicle>
    <vehicle id="truck45" type="truck_truck" depart="2756.50" departLane="best" departSpeed="max">
        <route edges="366949696 561748189 683268248#0"/>
    </vehicle>
    <vehicle id="truck46" type="truck_truck" depart="2817.76" departLane="best" departSpeed="max">
        <route edges="870991319#0 624604435#0 683268248#0"/>
    </vehicle>
    <vehicle id="truck47" type="truck_truck" depart="2879.02" departLane="best" departSpeed="max">
        <route edges="-678188678 561748189 683268248#0"/>
    </vehicle>
    <vehicle id="truck48" type="truck_truck" depart="2940.27" departLane="best" departSpeed="max">
        <route edges="-678188678 561748189 683268248#0"/>
    </vehicle>
    <vehicle id="truck49" type="truck_truck" depart="3001.53" departLane="best" departSpeed="max">
        <route edges="580815653#0 158466192#0 561748193 427550891#0"/>
    </vehicle>
    <vehicle id="truck50" type="truck_truck" depart="3062.78" departLane="best" departSpeed="max">
        <route edges="580815653#0 183689805#0"/>
    </vehicle>
    <vehicle id="truck51" type="truck_truck" depart="3124.04" departLane="best" departSpeed="max">
        <route edges="-678188678 561748189 683268248#0"/>
    </vehicle>
    <vehicle id="truck52" type="truck_truck" depart="3185.29" departLane="best" departSpeed="max">
        <route edges="-678188678 561748189 683268248#0"/>
    </vehicle>
    <vehicle id="truck53" type="truck_truck" depart="3246.55" departLane="best" departSpeed="max">
        <route edges="580815653#0 158466192#0 561748193 427550891#0"/>
    </vehicle>
    <vehicle id="truck54" type="truck_truck" depart="3307.81" departLane="best" departSpeed="max">
        <route edges="366949696 561748189 683268248#0"/>
    </vehicle>
    <vehicle id="truck55" type="truck_truck" depart="3369.06" departLane="best" departSpeed="max">
        <route edges="580815653#0 158466192#0 561748193 624604434"/>
    </vehicle>
    <vehicle id="truck56" type="truck_truck" depart="3430.32" departLane="best" departSpeed="max">
        <route edges="580815653#0 158466192#0 561748193"/>
    </vehicle>
    <vehicle id="truck57" type="truck_truck" depart="3491.57" departLane="best" departSpeed="max">
        <route edges="366949696 561748189 683268248#0"/>
    </vehicle>
    <vehicle id="truck58" type="truck_truck" depart="3552.83" departLane="best" departSpeed="max">
        <route edges="366949696 561748189 683268248#0"/>
    </vehicle>
</routes>
