<?xml version="1.0" encoding="UTF-8"?>

<!-- generated on 2025-10-02 19:04:21.645358 by randomTrips.py v1_24_0+0000-b72eb3fabc8
<configuration>
    <net-file value="osm.net.xml.gz"/>
    <output-trip-file value="osm.motorcycle.trips.xml"/>
    <route-file value="osm.motorcycle.rou.xml"/>
    <prefix value="motorcycle"/>
    <trip-attributes value="departLane=&quot;best&quot;"/>
    <fringe-start-attributes value="departSpeed=&quot;max&quot;"/>
    <vehicle-class value="motorcycle"/>
    <fringe-factor value="2"/>
    <edge-permission value="motorcycle"/>
    <via-edge-types value="highway.motorway,highway.motorway_link,highway.trunk_link,highway.primary_link,highway.secondary_link,highway.tertiary_link"/>
    <seed value="43"/>
    <max-distance value="1200.0"/>
    <remove-loops value="True"/>
    <insertion-density value="4.0"/>
</configuration>
-->

<!-- generated on 2025-10-02 19:04:21 by Eclipse SUMO duarouter Version 1.24.0
<duarouterConfiguration xmlns:xsi="http://www.w3.org/2001/XMLSchema-instance" xsi:noNamespaceSchemaLocation="http://sumo.dlr.de/xsd/duarouterConfiguration.xsd">

    <input>
        <net-file value="osm.net.xml.gz"/>
        <route-files value="osm.motorcycle.trips.xml"/>
    </input>

    <output>
        <output-file value="osm.motorcycle.rou.xml"/>
        <alternatives-output value="NUL"/>
    </output>

    <processing>
        <remove-loops value="true"/>
    </processing>

    <time>
        <begin value="0.0"/>
        <end value="3600.0"/>
    </time>

    <report>
        <no-warnings value="true"/>
        <ignore-errors value="true"/>
        <no-step-log value="true"/>
    </report>

</duarouterConfiguration>
-->

<routes xmlns:xsi="http://www.w3.org/2001/XMLSchema-instance" xsi:noNamespaceSchemaLocation="http://sumo.dlr.de/xsd/routes_file.xsd">
    <vType id="motorcycle_motorcycle" vClass="motorcycle"/>
    <vehicle id="motorcycle0" type="motorcycle_motorcycle" depart="0.00" departLane="best">
        <route edges="158466192#0 561748193"/>
    </vehicle>
    <vehicle id="motorcycle1" type="motorcycle_motorcycle" depart="122.51" departLane="best" departSpeed="max">
        <route edges="651079990 642898747 683268248#0"/>
    </vehicle>
    <vehicle id="motorcycle2" type="motorcycle_motorcycle" depart="245.02" departLane="best" departSpeed="max">
        <route edges="580815653#0 158466192#0 561748193 624604434"/>
    </vehicle>
    <vehicle id="motorcycle3" type="motorcycle_motorcycle" depart="367.53" departLane="best" departSpeed="max">
        <route edges="580815653#0 683268248#0"/>
    </vehicle>
    <vehicle id="motorcycle4" type="motorcycle_motorcycle" depart="490.05" departLane="best" departSpeed="max">
        <route edges="580815653#0 366952449#0"/>
    </vehicle>
    <vehicle id="motorcycle5" type="motorcycle_motorcycle" depart="612.56" departLane="best" departSpeed="max">
        <route edges="580815653#0 183689805#0"/>
    </vehicle>
    <vehicle id="motorcycle6" type="motorcycle_motorcycle" depart="735.07" departLane="best">
        <route edges="624604435#0 158466192#0 561748193 624604434"/>
    </vehicle>
    <vehicle id="motorcycle7" type="motorcycle_motorcycle" depart="857.58" departLane="best">
        <route edges="624604435#0 158466192#0 561748193 624604434"/>
    </vehicle>
    <vehicle id="motorcycle8" type="motorcycle_motorcycle" depart="980.09" departLane="best" departSpeed="max">
        <route edges="580815653#0 158466192#0"/>
    </vehicle>
    <vehicle id="motorcycle9" type="motorcycle_motorcycle" depart="1102.60" departLane="best" departSpeed="max">
        <route edges="-678188678 561748189 683268248#0"/>
    </vehicle>
    <vehicle id="motorcycle10" type="motorcycle_motorcycle" depart="1225.11" departLane="best" departSpeed="max">
        <route edges="651079990 642898747 183689805#0"/>
    </vehicle>
    <vehicle id="motorcycle11" type="motorcycle_motorcycle" depart="1347.62" departLane="best" departSpeed="max">
        <route edges="870991319#0 427551860 561748193 427550891#0"/>
    </vehicle>
    <vehicle id="motorcycle12" type="motorcycle_motorcycle" depart="1470.14" departLane="best" departSpeed="max">
        <route edges="366949696 561748189 683268248#0"/>
    </vehicle>
    <vehicle id="motorcycle13" type="motorcycle_motorcycle" depart="1592.65" departLane="best" departSpeed="max">
        <route edges="651079990 642898747 158466192#0 561748193 427550891#0"/>
    </vehicle>
    <vehicle id="motorcycle14" type="motorcycle_motorcycle" depart="1715.16" departLane="best" departSpeed="max">
        <route edges="870991319#0 427551860 561748193 624604434"/>
    </vehicle>
    <vehicle id="motorcycle15" type="motorcycle_motorcycle" depart="1837.67" departLane="best">
        <route edges="158466192#0 561748193 624604434"/>
    </vehicle>
    <vehicle id="motorcycle16" type="motorcycle_motorcycle" depart="1960.18" departLane="best" departSpeed="max">
        <route edges="767517245 775185678"/>
    </vehicle>
    <vehicle id="motorcycle17" type="motorcycle_motorcycle" depart="2082.69" departLane="best" departSpeed="max">
        <route edges="870991319#0 624604435#0"/>
    </vehicle>
    <vehicle id="motorcycle18" type="motorcycle_motorcycle" depart="2205.20" departLane="best" departSpeed="max">
        <route edges="-678188678 561748189 183689805#0"/>
    </vehicle>
    <vehicle id="motorcycle19" type="motorcycle_motorcycle" depart="2327.72" departLane="best">
        <route edges="561748189 683268248#0"/>
    </vehicle>
    <vehicle id="motorcycle20" type="motorcycle_motorcycle" depart="2450.23" departLane="best">
        <route edges="158466192#0 561748193 624604434"/>
    </vehicle>
    <vehicle id="motorcycle21" type="motorcycle_motorcycle" depart="2572.74" departLane="best" departSpeed="max">
        <route edges="580815653#0 158466192#0"/>
    </vehicle>
    <vehicle id="motorcycle22" type="motorcycle_motorcycle" depart="2695.25" departLane="best" departSpeed="max">
        <route edges="870991319#0 624604435#0 183689805#0"/>
    </vehicle>
    <vehicle id="motorcycle23" type="motorcycle_motorcycle" depart="2817.76" departLane="best" departSpeed="max">
        <route edges="767517245 775185678"/>
    </vehicle>
    <vehicle id="motorcycle24" type="motorcycle_motorcycle" depart="2940.27" departLane="best" departSpeed="max">
        <route edges="870991319#0 624604435#0 683268248#0"/>
    </vehicle>
    <vehicle id="motorcycle25" type="motorcycle_motorcycle" depart="3062.78" departLane="best">
        <route edges="642898747 366952449#0"/>
    </vehicle>
    <vehicle id="motorcycle26" type="motorcycle_motorcycle" depart="3185.29" departLane="best">
        <route edges="561748193 427550891#0"/>
    </vehicle>
    <vehicle id="motorcycle27" type="motorcycle_motorcycle" depart="3307.81" departLane="best" departSpeed="max">
        <route edges="366949696 561748189 366952449#0"/>
    </vehicle>
    <vehicle id="motorcycle28" type="motorcycle_motorcycle" depart="3430.32" departLane="best" departSpeed="max">
        <route edges="775185671 683268239"/>
    </vehicle>
    <vehicle id="motorcycle29" type="motorcycle_motorcycle" depart="3552.83" departLane="best" departSpeed="max">
        <route edges="870991319#0 624604435#0 366952449#0"/>
    </vehicle>
</routes>
