<?xml version="1.0" encoding="UTF-8"?>

<!-- generated on 2025-10-02 19:04:21.519721 by randomTrips.py v1_24_0+0000-b72eb3fabc8
<configuration>
    <net-file value="osm.net.xml.gz"/>
    <output-trip-file value="osm.motorcycle.trips.xml"/>
    <route-file value="osm.motorcycle.rou.xml"/>
    <prefix value="motorcycle"/>
    <trip-attributes value="departLane=&quot;best&quot;"/>
    <fringe-start-attributes value="departSpeed=&quot;max&quot;"/>
    <vehicle-class value="motorcycle"/>
    <fringe-factor value="2"/>
    <edge-permission value="motorcycle"/>
    <via-edge-types value="highway.motorway,highway.motorway_link,highway.trunk_link,highway.primary_link,highway.secondary_link,highway.tertiary_link"/>
    <seed value="43"/>
    <max-distance value="1200.0"/>
    <remove-loops value="True"/>
    <insertion-density value="4.0"/>
</configuration>
-->

<routes xmlns:xsi="http://www.w3.org/2001/XMLSchema-instance" xsi:noNamespaceSchemaLocation="http://sumo.dlr.de/xsd/routes_file.xsd">
    <vType id="motorcycle_motorcycle" vClass="motorcycle"/>
    <trip id="motorcycle0" depart="0.00" from="158466192#0" to="561748193" departLane="best" type="motorcycle_motorcycle"/>
    <trip id="motorcycle1" depart="122.51" from="651079990" to="683268248#0" departLane="best" type="motorcycle_motorcycle" departSpeed="max"/>
    <trip id="motorcycle2" depart="245.02" from="580815653#0" to="624604434" departLane="best" type="motorcycle_motorcycle" departSpeed="max"/>
    <trip id="motorcycle3" depart="367.53" from="580815653#0" to="683268248#0" departLane="best" type="motorcycle_motorcycle" departSpeed="max"/>
    <trip id="motorcycle4" depart="490.05" from="580815653#0" to="366952449#0" departLane="best" type="motorcycle_motorcycle" departSpeed="max"/>
    <trip id="motorcycle5" depart="612.56" from="580815653#0" to="183689805#0" departLane="best" type="motorcycle_motorcycle" departSpeed="max"/>
    <trip id="motorcycle6" depart="735.07" from="624604435#0" to="624604434" departLane="best" type="motorcycle_motorcycle"/>
    <trip id="motorcycle7" depart="857.58" from="624604435#0" to="624604434" departLane="best" type="motorcycle_motorcycle"/>
    <trip id="motorcycle8" depart="980.09" from="580815653#0" to="158466192#0" departLane="best" type="motorcycle_motorcycle" departSpeed="max"/>
    <trip id="motorcycle9" depart="1102.60" from="-678188678" to="683268248#0" departLane="best" type="motorcycle_motorcycle" departSpeed="max"/>
    <trip id="motorcycle10" depart="1225.11" from="651079990" to="183689805#0" departLane="best" type="motorcycle_motorcycle" departSpeed="max"/>
    <trip id="motorcycle11" depart="1347.62" from="870991319#0" to="427550891#0" departLane="best" type="motorcycle_motorcycle" departSpeed="max"/>
    <trip id="motorcycle12" depart="1470.14" from="366949696" to="683268248#0" departLane="best" type="motorcycle_motorcycle" departSpeed="max"/>
    <trip id="motorcycle13" depart="1592.65" from="651079990" to="427550891#0" departLane="best" type="motorcycle_motorcycle" departSpeed="max"/>
    <trip id="motorcycle14" depart="1715.16" from="870991319#0" to="624604434" departLane="best" type="motorcycle_motorcycle" departSpeed="max"/>
    <trip id="motorcycle15" depart="1837.67" from="158466192#0" to="624604434" departLane="best" type="motorcycle_motorcycle"/>
    <trip id="motorcycle16" depart="1960.18" from="767517245" to="775185678" departLane="best" type="motorcycle_motorcycle" departSpeed="max"/>
    <trip id="motorcycle17" depart="2082.69" from="870991319#0" to="624604435#0" departLane="best" type="motorcycle_motorcycle" departSpeed="max"/>
    <trip id="motorcycle18" depart="2205.20" from="-678188678" to="183689805#0" departLane="best" type="motorcycle_motorcycle" departSpeed="max"/>
    <trip id="motorcycle19" depart="2327.72" from="158466192#0" to="683268248#0" departLane="best" type="motorcycle_motorcycle"/>
    <trip id="motorcycle20" depart="2450.23" from="158466192#0" to="624604434" departLane="best" type="motorcycle_motorcycle"/>
    <trip id="motorcycle21" depart="2572.74" from="580815653#0" to="158466192#0" departLane="best" type="motorcycle_motorcycle" departSpeed="max"/>
    <trip id="motorcycle22" depart="2695.25" from="870991319#0" to="183689805#0" departLane="best" type="motorcycle_motorcycle" departSpeed="max"/>
    <trip id="motorcycle23" depart="2817.76" from="767517245" to="775185678" departLane="best" type="motorcycle_motorcycle" departSpeed="max"/>
    <trip id="motorcycle24" depart="2940.27" from="870991319#0" to="683268248#0" departLane="best" type="motorcycle_motorcycle" departSpeed="max"/>
    <trip id="motorcycle25" depart="3062.78" from="642898747" to="366952449#0" departLane="best" type="motorcycle_motorcycle"/>
    <trip id="motorcycle26" depart="3185.29" from="561748193" to="427550891#0" departLane="best" type="motorcycle_motorcycle"/>
    <trip id="motorcycle27" depart="3307.81" from="366949696" to="366952449#0" departLane="best" type="motorcycle_motorcycle" departSpeed="max"/>
    <trip id="motorcycle28" depart="3430.32" from="775185671" to="683268239" departLane="best" type="motorcycle_motorcycle" departSpeed="max"/>
    <trip id="motorcycle29" depart="3552.83" from="870991319#0" to="366952449#0" departLane="best" type="motorcycle_motorcycle" departSpeed="max"/>
</routes>
