<?xml version="1.0" encoding="UTF-8"?>

<!-- generated on 2025-10-02 19:04:22.557052 by randomTrips.py v1_24_0+0000-b72eb3fabc8
<configuration>
    <net-file value="osm.net.xml.gz"/>
    <output-trip-file value="osm.passenger.trips.xml"/>
    <route-file value="osm.passenger.rou.xml"/>
    <prefix value="veh"/>
    <trip-attributes value="departLane=&quot;best&quot;"/>
    <fringe-start-attributes value="departSpeed=&quot;max&quot;"/>
    <vehicle-class value="passenger"/>
    <lanes value="True"/>
    <fringe-factor value="5"/>
    <allow-fringe.min-length value="1000.0"/>
    <edge-permission value="passenger"/>
    <via-edge-types value="highway.motorway,highway.motorway_link,highway.trunk_link,highway.primary_link,highway.secondary_link,highway.tertiary_link"/>
    <seed value="44"/>
    <min-distance value="300.0"/>
    <min-distance.fringe value="10.0"/>
    <remove-loops value="True"/>
    <insertion-density value="12.0"/>
</configuration>
-->

<!-- generated on 2025-10-02 19:04:22 by Eclipse SUMO duarouter Version 1.24.0
<duarouterConfiguration xmlns:xsi="http://www.w3.org/2001/XMLSchema-instance" xsi:noNamespaceSchemaLocation="http://sumo.dlr.de/xsd/duarouterConfiguration.xsd">

    <input>
        <net-file value="osm.net.xml.gz"/>
        <route-files value="osm.passenger.trips.xml"/>
    </input>

    <output>
        <output-file value="osm.passenger.rou.xml"/>
        <alternatives-output value="NUL"/>
    </output>

    <processing>
        <remove-loops value="true"/>
    </processing>

    <time>
        <begin value="0.0"/>
        <end value="3600.0"/>
    </time>

    <report>
        <no-warnings value="true"/>
        <ignore-errors value="true"/>
        <no-step-log value="true"/>
    </report>

</duarouterConfiguration>
-->

<routes xmlns:xsi="http://www.w3.org/2001/XMLSchema-instance" xsi:noNamespaceSchemaLocation="http://sumo.dlr.de/xsd/routes_file.xsd">
    <vType id="veh_passenger" vClass="passenger"/>
    <vehicle id="veh0" type="veh_passenger" depart="0.00" departLane="best" departSpeed="max">
        <route edges="580815653#0 158466192#0 561748193 624604434"/>
    </vehicle>
    <vehicle id="veh1" type="veh_passenger" depart="40.84" departLane="best">
        <route edges="561748193 624604434"/>
    </vehicle>
    <vehicle id="veh2" type="veh_passenger" depart="81.67" departLane="best">
        <route edges="561748189 683268248#0"/>
    </vehicle>
    <vehicle id="veh3" type="veh_passenger" depart="122.51" departLane="best" departSpeed="max">
        <route edges="-678188678 561748189 183689805#0"/>
    </vehicle>
    <vehicle id="veh4" type="veh_passenger" depart="163.35" departLane="best" departSpeed="max">
        <route edges="870991319#0 624604435#0 366952449#0"/>
    </vehicle>
    <vehicle id="veh5" type="veh_passenger" depart="204.19" departLane="best" departSpeed="max">
        <route edges="366949696 427550891#0"/>
    </vehicle>
    <vehicle id="veh6" type="veh_passenger" depart="245.02" departLane="best" departSpeed="max">
        <route edges="651079990 642898747 683268248#0"/>
    </vehicle>
    <vehicle id="veh7" type="veh_passenger" depart="285.86" departLane="best" departSpeed="max">
        <route edges="580815653#0 183689805#0"/>
    </vehicle>
    <vehicle id="veh8" type="veh_passenger" depart="326.70" departLane="best" departSpeed="max">
        <route edges="580815653#0 158466192#0 561748193 624604434"/>
    </vehicle>
    <vehicle id="veh9" type="veh_passenger" depart="367.53" departLane="best">
        <route edges="561748189 683268248#0"/>
    </vehicle>
    <vehicle id="veh10" type="veh_passenger" depart="408.37" departLane="best" departSpeed="max">
        <route edges="366949696 561748189 366952449#0"/>
    </vehicle>
    <vehicle id="veh11" type="veh_passenger" depart="449.21" departLane="best" departSpeed="max">
        <route edges="651079990 642898747 158466192#0 561748193 624604434"/>
    </vehicle>
    <vehicle id="veh12" type="veh_passenger" depart="490.05" departLane="best" departSpeed="max">
        <route edges="366949696 561748189 366952449#0"/>
    </vehicle>
    <vehicle id="veh13" type="veh_passenger" depart="530.88" departLane="best">
        <route edges="561748189 683268248#0"/>
    </vehicle>
    <vehicle id="veh14" type="veh_passenger" depart="571.72" departLane="best" departSpeed="max">
        <route edges="580815653#0 183689805#0"/>
    </vehicle>
    <vehicle id="veh15" type="veh_passenger" depart="612.56" departLane="best" departSpeed="max">
        <route edges="580815653#0 183689805#0"/>
    </vehicle>
    <vehicle id="veh16" type="veh_passenger" depart="653.39" departLane="best" departSpeed="max">
        <route edges="580815653#0 158466192#0 561748193 624604434"/>
    </vehicle>
    <vehicle id="veh17" type="veh_passenger" depart="694.23" departLane="best" departSpeed="max">
        <route edges="580815653#0 158466192#0 561748193 427550891#0"/>
    </vehicle>
    <vehicle id="veh18" type="veh_passenger" depart="735.07" departLane="best">
        <route edges="158466192#0 561748193 624604434"/>
    </vehicle>
    <vehicle id="veh19" type="veh_passenger" depart="775.91" departLane="best" departSpeed="max">
        <route edges="651079990 642898747 683268248#0"/>
    </vehicle>
    <vehicle id="veh20" type="veh_passenger" depart="816.74" departLane="best">
        <route edges="561748189 683268248#0"/>
    </vehicle>
    <vehicle id="veh21" type="veh_passenger" depart="857.58" departLane="best" departSpeed="max">
        <route edges="580815653#0 183689805#0"/>
    </vehicle>
    <vehicle id="veh22" type="veh_passenger" depart="898.42" departLane="best" departSpeed="max">
        <route edges="366949696 561748189 366952449#0"/>
    </vehicle>
    <vehicle id="veh23" type="veh_passenger" depart="939.25" departLane="best" departSpeed="max">
        <route edges="580815653#0 158466192#0 561748193 624604434"/>
    </vehicle>
    <vehicle id="veh24" type="veh_passenger" depart="980.09" departLane="best">
        <route edges="561748189 683268248#0"/>
    </vehicle>
    <vehicle id="veh25" type="veh_passenger" depart="1020.93" departLane="best" departSpeed="max">
        <route edges="651079990 642898747 158466192#0 561748193 624604434"/>
    </vehicle>
    <vehicle id="veh26" type="veh_passenger" depart="1061.76" departLane="best" departSpeed="max">
        <route edges="366949696 561748189 366952449#0"/>
    </vehicle>
    <vehicle id="veh27" type="veh_passenger" depart="1102.60" departLane="best" departSpeed="max">
        <route edges="366949696 561748189 366952449#0"/>
    </vehicle>
    <vehicle id="veh28" type="veh_passenger" depart="1143.44" departLane="best" departSpeed="max">
        <route edges="-678188678 561748189 183689805#0"/>
    </vehicle>
    <vehicle id="veh29" type="veh_passenger" depart="1184.28" departLane="best" departSpeed="max">
        <route edges="366949696 427550891#0"/>
    </vehicle>
    <vehicle id="veh30" type="veh_passenger" depart="1225.11" departLane="best" departSpeed="max">
        <route edges="366949696 427550891#0"/>
    </vehicle>
    <vehicle id="veh31" type="veh_passenger" depart="1265.95" departLane="best">
        <route edges="561748193 624604434"/>
    </vehicle>
    <vehicle id="veh32" type="veh_passenger" depart="1306.79" departLane="best" departSpeed="max">
        <route edges="366949696 561748189 683268248#0"/>
    </vehicle>
    <vehicle id="veh33" type="veh_passenger" depart="1347.62" departLane="best" departSpeed="max">
        <route edges="-678188678 561748189 683268248#0"/>
    </vehicle>
    <vehicle id="veh34" type="veh_passenger" depart="1388.46" departLane="best" departSpeed="max">
        <route edges="366949696 561748189 366952449#0"/>
    </vehicle>
    <vehicle id="veh35" type="veh_passenger" depart="1429.30" departLane="best" departSpeed="max">
        <route edges="580815653#0 158466192#0"/>
    </vehicle>
    <vehicle id="veh36" type="veh_passenger" depart="1470.14" departLane="best" departSpeed="max">
        <route edges="580815653#0 158466192#0 561748193 427550891#0"/>
    </vehicle>
    <vehicle id="veh37" type="veh_passenger" depart="1510.97" departLane="best" departSpeed="max">
        <route edges="870991319#0 624604435#0 366952449#0"/>
    </vehicle>
    <vehicle id="veh38" type="veh_passenger" depart="1551.81" departLane="best" departSpeed="max">
        <route edges="366949696 561748189 683268248#0"/>
    </vehicle>
    <vehicle id="veh39" type="veh_passenger" depart="1592.65" departLane="best" departSpeed="max">
        <route edges="580815653#0 158466192#0 561748193"/>
    </vehicle>
    <vehicle id="veh40" type="veh_passenger" depart="1633.48" departLane="best">
        <route edges="561748189 366952449#0"/>
    </vehicle>
    <vehicle id="veh41" type="veh_passenger" depart="1674.32" departLane="best">
        <route edges="642898747 158466192#0 561748193 624604434"/>
    </vehicle>
    <vehicle id="veh42" type="veh_passenger" depart="1715.16" departLane="best">
        <route edges="561748193 561748189 683268248#0"/>
    </vehicle>
    <vehicle id="veh43" type="veh_passenger" depart="1756.00" departLane="best" departSpeed="max">
        <route edges="580815653#0 366952449#0"/>
    </vehicle>
    <vehicle id="veh44" type="veh_passenger" depart="1796.83" departLane="best" departSpeed="max">
        <route edges="366949696 427550891#0"/>
    </vehicle>
    <vehicle id="veh45" type="veh_passenger" depart="1837.67" departLane="best" departSpeed="max">
        <route edges="366949696 561748189 366952449#0"/>
    </vehicle>
    <vehicle id="veh46" type="veh_passenger" depart="1878.51" departLane="best">
        <route edges="158466192#0 561748193 624604434"/>
    </vehicle>
    <vehicle id="veh47" type="veh_passenger" depart="1919.34" departLane="best" departSpeed="max">
        <route edges="651079990 642898747 158466192#0 561748193 624604434"/>
    </vehicle>
    <vehicle id="veh48" type="veh_passenger" depart="1960.18" departLane="best" departSpeed="max">
        <route edges="580815653#0 158466192#0 561748193 624604434"/>
    </vehicle>
    <vehicle id="veh49" type="veh_passenger" depart="2001.02" departLane="best" departSpeed="max">
        <route edges="580815653#0 158466192#0 561748193 624604434"/>
    </vehicle>
    <vehicle id="veh50" type="veh_passenger" depart="2041.86" departLane="best" departSpeed="max">
        <route edges="580815653#0 366952449#0"/>
    </vehicle>
    <vehicle id="veh51" type="veh_passenger" depart="2082.69" departLane="best" departSpeed="max">
        <route edges="-678188678 561748189 183689805#0"/>
    </vehicle>
    <vehicle id="veh52" type="veh_passenger" depart="2123.53" departLane="best" departSpeed="max">
        <route edges="366949696 561748189 683268248#0"/>
    </vehicle>
    <vehicle id="veh53" type="veh_passenger" depart="2164.37" departLane="best" departSpeed="max">
        <route edges="366949696 561748189 683268248#0"/>
    </vehicle>
    <vehicle id="veh54" type="veh_passenger" depart="2205.20" departLane="best" departSpeed="max">
        <route edges="580815653#0 158466192#0 561748193 624604434"/>
    </vehicle>
    <vehicle id="veh55" type="veh_passenger" depart="2246.04" departLane="best" departSpeed="max">
        <route edges="580815653#0 158466192#0 561748193"/>
    </vehicle>
    <vehicle id="veh56" type="veh_passenger" depart="2286.88" departLane="best">
        <route edges="561748189 683268248#0"/>
    </vehicle>
    <vehicle id="veh57" type="veh_passenger" depart="2327.72" departLane="best">
        <route edges="642898747 683268248#0"/>
    </vehicle>
    <vehicle id="veh58" type="veh_passenger" depart="2368.55" departLane="best" departSpeed="max">
        <route edges="580815653#0 158466192#0"/>
    </vehicle>
    <vehicle id="veh59" type="veh_passenger" depart="2409.39" departLane="best" departSpeed="max">
        <route edges="366949696 561748189 366952449#0"/>
    </vehicle>
    <vehicle id="veh60" type="veh_passenger" depart="2450.23" departLane="best" departSpeed="max">
        <route edges="651079990 642898747 158466192#0 561748193 624604434"/>
    </vehicle>
    <vehicle id="veh61" type="veh_passenger" depart="2491.06" departLane="best" departSpeed="max">
        <route edges="580815653#0 158466192#0 561748193 624604434"/>
    </vehicle>
    <vehicle id="veh62" type="veh_passenger" depart="2531.90" departLane="best" departSpeed="max">
        <route edges="651079990 642898747 158466192#0 561748193"/>
    </vehicle>
    <vehicle id="veh63" type="veh_passenger" depart="2572.74" departLane="best" departSpeed="max">
        <route edges="580815653#0 366952449#0"/>
    </vehicle>
    <vehicle id="veh64" type="veh_passenger" depart="2613.57" departLane="best">
        <route edges="561748189 683268248#0"/>
    </vehicle>
    <vehicle id="veh65" type="veh_passenger" depart="2654.41" departLane="best" departSpeed="max">
        <route edges="366949696 561748189 683268248#0"/>
    </vehicle>
    <vehicle id="veh66" type="veh_passenger" depart="2695.25" departLane="best" departSpeed="max">
        <route edges="870991319#0 624604435#0 366952449#0"/>
    </vehicle>
    <vehicle id="veh67" type="veh_passenger" depart="2736.09" departLane="best" departSpeed="max">
        <route edges="366949696 561748189 683268248#0"/>
    </vehicle>
    <vehicle id="veh68" type="veh_passenger" depart="2776.92" departLane="best">
        <route edges="561748193 561748189 683268248#0"/>
    </vehicle>
    <vehicle id="veh69" type="veh_passenger" depart="2817.76" departLane="best" departSpeed="max">
        <route edges="-678188678 624604434"/>
    </vehicle>
    <vehicle id="veh70" type="veh_passenger" depart="2858.60" departLane="best" departSpeed="max">
        <route edges="366949696 561748189"/>
    </vehicle>
    <vehicle id="veh71" type="veh_passenger" depart="2899.43" departLane="best" departSpeed="max">
        <route edges="580815653#0 158466192#0 561748193 624604434"/>
    </vehicle>
    <vehicle id="veh72" type="veh_passenger" depart="2940.27" departLane="best" departSpeed="max">
        <route edges="767517245 775185678"/>
    </vehicle>
    <vehicle id="veh73" type="veh_passenger" depart="2981.11" departLane="best" departSpeed="max">
        <route edges="-678188678 561748189 183689805#0"/>
    </vehicle>
    <vehicle id="veh74" type="veh_passenger" depart="3021.95" departLane="best" departSpeed="max">
        <route edges="366949696 561748189 366952449#0"/>
    </vehicle>
    <vehicle id="veh75" type="veh_passenger" depart="3062.78" departLane="best" departSpeed="max">
        <route edges="366949696 561748189 683268248#0"/>
    </vehicle>
    <vehicle id="veh76" type="veh_passenger" depart="3103.62" departLane="best" departSpeed="max">
        <route edges="366949696 561748189 683268248#0"/>
    </vehicle>
    <vehicle id="veh77" type="veh_passenger" depart="3144.46" departLane="best" departSpeed="max">
        <route edges="870991319#0 624604435#0 683268248#0"/>
    </vehicle>
    <vehicle id="veh78" type="veh_passenger" depart="3185.29" departLane="best" departSpeed="max">
        <route edges="366949696 561748189 366952449#0"/>
    </vehicle>
    <vehicle id="veh79" type="veh_passenger" depart="3226.13" departLane="best" departSpeed="max">
        <route edges="366949696 427550891#0"/>
    </vehicle>
    <vehicle id="veh80" type="veh_passenger" depart="3266.97" departLane="best" departSpeed="max">
        <route edges="580815653#0 158466192#0 561748193 624604434"/>
    </vehicle>
    <vehicle id="veh81" type="veh_passenger" depart="3307.81" departLane="best" departSpeed="max">
        <route edges="580815653#0 158466192#0 561748193 624604434"/>
    </vehicle>
    <vehicle id="veh82" type="veh_passenger" depart="3348.64" departLane="best" departSpeed="max">
        <route edges="366949696 561748189 683268248#0"/>
    </vehicle>
    <vehicle id="veh83" type="veh_passenger" depart="3389.48" departLane="best" departSpeed="max">
        <route edges="580815653#0 366952449#0"/>
    </vehicle>
    <vehicle id="veh84" type="veh_passenger" depart="3430.32" departLane="best" departSpeed="max">
        <route edges="366949696 561748189 366952449#0"/>
    </vehicle>
    <vehicle id="veh85" type="veh_passenger" depart="3471.15" departLane="best">
        <route edges="624604435#0 683268248#0"/>
    </vehicle>
    <vehicle id="veh86" type="veh_passenger" depart="3511.99" departLane="best" departSpeed="max">
        <route edges="651079990 642898747 158466192#0 561748193 624604434"/>
    </vehicle>
    <vehicle id="veh87" type="veh_passenger" depart="3552.83" departLane="best" departSpeed="max">
        <route edges="767517245 775185678"/>
    </vehicle>
    <vehicle id="veh88" type="veh_passenger" depart="3593.67" departLane="best" departSpeed="max">
        <route edges="580815653#0 183689805#0"/>
    </vehicle>
</routes>
