<?xml version="1.0" encoding="UTF-8"?>

<!-- generated on 2025-09-03 00:55:17.801176 by osmWebWizard.py v1_24_0+0000-b72eb3fabc8
<configuration>
    <net-file value="C:\Users\kgaqu\OneDrive\Documents\4th Year\Capstone 2\v10\osm_importer\osm_scenarios\2025-09-03-00-55-13\osm.net.xml.gz"/>
    <output-trip-file value="C:\Users\kgaqu\OneDrive\Documents\4th Year\Capstone 2\v10\osm_importer\osm_scenarios\2025-09-03-00-55-13\osm.motorcycle.trips.xml"/>
    <route-file value="C:\Users\kgaqu\OneDrive\Documents\4th Year\Capstone 2\v10\osm_importer\osm_scenarios\2025-09-03-00-55-13\osm.motorcycle.rou.xml"/>
    <prefix value="motorcycle"/>
    <trip-attributes value="departLane=&quot;best&quot;"/>
    <fringe-start-attributes value="departSpeed=&quot;max&quot;"/>
    <vehicle-class value="motorcycle"/>
    <fringe-factor value="2"/>
    <edge-permission value="motorcycle"/>
    <via-edge-types value="highway.motorway,highway.motorway_link,highway.trunk_link,highway.primary_link,highway.secondary_link,highway.tertiary_link"/>
    <seed value="44"/>
    <max-distance value="1200.0"/>
    <remove-loops value="True"/>
    <insertion-density value="4.0"/>
</configuration>
-->

<routes xmlns:xsi="http://www.w3.org/2001/XMLSchema-instance" xsi:noNamespaceSchemaLocation="http://sumo.dlr.de/xsd/routes_file.xsd">
    <vType id="motorcycle_motorcycle" vClass="motorcycle"/>
    <trip id="motorcycle0" depart="0.00" from="183685561" to="580815652" departLane="best" type="motorcycle_motorcycle" departSpeed="max"/>
    <trip id="motorcycle1" depart="79.29" from="852188473" to="158466192#0" departLane="best" type="motorcycle_motorcycle"/>
    <trip id="motorcycle2" depart="158.58" from="1072529522#0" to="1033158919#0" departLane="best" type="motorcycle_motorcycle" departSpeed="max"/>
    <trip id="motorcycle3" depart="237.87" from="1033158925" to="1033158919#0" departLane="best" type="motorcycle_motorcycle"/>
    <trip id="motorcycle4" depart="317.16" from="993441703" to="642898747" departLane="best" type="motorcycle_motorcycle" departSpeed="max"/>
    <trip id="motorcycle5" depart="396.44" from="183685561" to="427551889#0" departLane="best" type="motorcycle_motorcycle" departSpeed="max"/>
    <trip id="motorcycle6" depart="475.73" from="624604434" to="427550891#0" departLane="best" type="motorcycle_motorcycle"/>
    <trip id="motorcycle7" depart="555.02" from="1033158919#0" to="683268248#0" departLane="best" type="motorcycle_motorcycle"/>
    <trip id="motorcycle8" depart="634.31" from="573710409#0" to="1054125801" departLane="best" type="motorcycle_motorcycle"/>
    <trip id="motorcycle9" depart="713.60" from="1033158919#0" to="1054125801" departLane="best" type="motorcycle_motorcycle"/>
    <trip id="motorcycle10" depart="792.89" from="993441703" to="1054125801" departLane="best" type="motorcycle_motorcycle" departSpeed="max"/>
    <trip id="motorcycle11" depart="872.18" from="573710409#0" to="993441704" departLane="best" type="motorcycle_motorcycle"/>
    <trip id="motorcycle12" depart="951.47" from="-678188678" to="427551889#0" departLane="best" type="motorcycle_motorcycle" departSpeed="max"/>
    <trip id="motorcycle13" depart="1030.75" from="624604435#0" to="651080031" departLane="best" type="motorcycle_motorcycle"/>
    <trip id="motorcycle14" depart="1110.04" from="580815653#0" to="427550891#0" departLane="best" type="motorcycle_motorcycle"/>
    <trip id="motorcycle15" depart="1189.33" from="561748193" to="580815652" departLane="best" type="motorcycle_motorcycle"/>
    <trip id="motorcycle16" depart="1268.62" from="1072529522#0" to="561748193" departLane="best" type="motorcycle_motorcycle" departSpeed="max"/>
    <trip id="motorcycle17" depart="1347.91" from="-678188678" to="651080031" departLane="best" type="motorcycle_motorcycle" departSpeed="max"/>
    <trip id="motorcycle18" depart="1427.20" from="580815653#0" to="580815652" departLane="best" type="motorcycle_motorcycle"/>
    <trip id="motorcycle19" depart="1506.49" from="993441703" to="427551889#0" departLane="best" type="motorcycle_motorcycle" departSpeed="max"/>
    <trip id="motorcycle20" depart="1585.78" from="158466192#0" to="683268248#0" departLane="best" type="motorcycle_motorcycle"/>
    <trip id="motorcycle21" depart="1665.06" from="573710409#0" to="1072529521" departLane="best" type="motorcycle_motorcycle"/>
    <trip id="motorcycle22" depart="1744.35" from="1072529522#0" to="1033158919#0" departLane="best" type="motorcycle_motorcycle" departSpeed="max"/>
    <trip id="motorcycle23" depart="1823.64" from="573710409#0" to="158466192#0" departLane="best" type="motorcycle_motorcycle"/>
    <trip id="motorcycle24" depart="1902.93" from="683268248#0" to="683268248#0" departLane="best" type="motorcycle_motorcycle"/>
    <trip id="motorcycle25" depart="1982.22" from="561748193" to="580815652" departLane="best" type="motorcycle_motorcycle"/>
    <trip id="motorcycle26" depart="2061.51" from="366952449#0" to="366952449#0" departLane="best" type="motorcycle_motorcycle"/>
    <trip id="motorcycle27" depart="2140.80" from="366960815" to="993441704" departLane="best" type="motorcycle_motorcycle" departSpeed="max"/>
    <trip id="motorcycle28" depart="2220.09" from="1033158919#0" to="366949696" departLane="best" type="motorcycle_motorcycle"/>
    <trip id="motorcycle29" depart="2299.38" from="870991328" to="624604436" departLane="best" type="motorcycle_motorcycle" departSpeed="max"/>
    <trip id="motorcycle30" depart="2378.66" from="1033158919#0" to="561748193" departLane="best" type="motorcycle_motorcycle"/>
    <trip id="motorcycle31" depart="2457.95" from="580815653#0" to="852188473" departLane="best" type="motorcycle_motorcycle"/>
    <trip id="motorcycle32" depart="2537.24" from="366960815" to="683268248#0" departLane="best" type="motorcycle_motorcycle" departSpeed="max"/>
    <trip id="motorcycle33" depart="2616.53" from="1072529522#0" to="561748189" departLane="best" type="motorcycle_motorcycle" departSpeed="max"/>
    <trip id="motorcycle34" depart="2695.82" from="1072529522#0" to="183689805#0" departLane="best" type="motorcycle_motorcycle" departSpeed="max"/>
    <trip id="motorcycle35" depart="2775.11" from="561748193" to="580815652" departLane="best" type="motorcycle_motorcycle"/>
    <trip id="motorcycle36" depart="2854.40" from="1033158919#0" to="852188473" departLane="best" type="motorcycle_motorcycle"/>
    <trip id="motorcycle37" depart="2933.69" from="993441703" to="651080031" departLane="best" type="motorcycle_motorcycle" departSpeed="max"/>
    <trip id="motorcycle38" depart="3012.97" from="624604434" to="561748193" departLane="best" type="motorcycle_motorcycle"/>
    <trip id="motorcycle39" depart="3092.26" from="624604436" to="1033158919#0" departLane="best" type="motorcycle_motorcycle"/>
    <trip id="motorcycle40" depart="3171.55" from="1059676183" to="1072529521" departLane="best" type="motorcycle_motorcycle" departSpeed="max"/>
    <trip id="motorcycle41" depart="3250.84" from="1033158925" to="427551889#0" departLane="best" type="motorcycle_motorcycle"/>
    <trip id="motorcycle42" depart="3330.13" from="870991328" to="624604435#0" departLane="best" type="motorcycle_motorcycle" departSpeed="max"/>
    <trip id="motorcycle43" depart="3409.42" from="642898747" to="1033158919#0" departLane="best" type="motorcycle_motorcycle"/>
    <trip id="motorcycle44" depart="3488.71" from="870991328" to="1072529521" departLane="best" type="motorcycle_motorcycle" departSpeed="max"/>
    <trip id="motorcycle45" depart="3568.00" from="852188473" to="683268248#0" departLane="best" type="motorcycle_motorcycle"/>
</routes>
