<?xml version="1.0" encoding="UTF-8"?>

<!-- generated on 2025-09-03 00:55:19.104015 by osmWebWizard.py v1_24_0+0000-b72eb3fabc8
<configuration>
    <net-file value="C:\Users\kgaqu\OneDrive\Documents\4th Year\Capstone 2\v10\osm_importer\osm_scenarios\2025-09-03-00-55-13\osm.net.xml.gz"/>
    <output-trip-file value="C:\Users\kgaqu\OneDrive\Documents\4th Year\Capstone 2\v10\osm_importer\osm_scenarios\2025-09-03-00-55-13\osm.pedestrian.trips.xml"/>
    <route-file value="C:\Users\kgaqu\OneDrive\Documents\4th Year\Capstone 2\v10\osm_importer\osm_scenarios\2025-09-03-00-55-13\osm.pedestrian.rou.xml"/>
    <pedestrians value="True"/>
    <prefix value="ped"/>
    <vehicle-class value="pedestrian"/>
    <fringe-factor value="1"/>
    <seed value="46"/>
    <max-distance value="2000.0"/>
    <insertion-density value="10.0"/>
</configuration>
-->

<!-- generated on 2025-09-03 00:55:19 by Eclipse SUMO duarouter Version 1.24.0
<duarouterConfiguration xmlns:xsi="http://www.w3.org/2001/XMLSchema-instance" xsi:noNamespaceSchemaLocation="http://sumo.dlr.de/xsd/duarouterConfiguration.xsd">

    <input>
        <net-file value="C:\Users\kgaqu\OneDrive\Documents\4th Year\Capstone 2\v10\osm_importer\osm_scenarios\2025-09-03-00-55-13\osm.net.xml.gz"/>
        <route-files value="C:\Users\kgaqu\OneDrive\Documents\4th Year\Capstone 2\v10\osm_importer\osm_scenarios\2025-09-03-00-55-13\osm.pedestrian.trips.xml"/>
    </input>

    <output>
        <output-file value="C:\Users\kgaqu\OneDrive\Documents\4th Year\Capstone 2\v10\osm_importer\osm_scenarios\2025-09-03-00-55-13\osm.pedestrian.rou.xml"/>
        <alternatives-output value="NUL"/>
    </output>

    <time>
        <begin value="0.0"/>
        <end value="3600.0"/>
    </time>

    <report>
        <no-warnings value="true"/>
        <ignore-errors value="true"/>
        <no-step-log value="true"/>
    </report>

</duarouterConfiguration>
-->

<routes xmlns:xsi="http://www.w3.org/2001/XMLSchema-instance" xsi:noNamespaceSchemaLocation="http://sumo.dlr.de/xsd/routes_file.xsd">
    <vType id="ped_pedestrian" vClass="pedestrian"/>
    <person id="ped0" type="ped_pedestrian" depart="0.00">
        <walk edges="642898747 993441703"/>
    </person>
    <person id="ped1" type="ped_pedestrian" depart="67.87">
        <walk edges="642898747 366952449#0 993441704"/>
    </person>
    <person id="ped2" type="ped_pedestrian" depart="135.75">
        <walk edges="183689805#0"/>
    </person>
    <person id="ped3" type="ped_pedestrian" depart="203.62">
        <walk edges="993441704"/>
    </person>
    <person id="ped4" type="ped_pedestrian" depart="271.49">
        <walk edges="561748189 366949696"/>
    </person>
    <person id="ped5" type="ped_pedestrian" depart="339.37">
        <walk edges="366949696 561748189"/>
    </person>
    <person id="ped6" type="ped_pedestrian" depart="407.24">
        <walk edges="561748189 366949696"/>
    </person>
    <person id="ped7" type="ped_pedestrian" depart="475.11">
        <walk edges="642898747 366952449#0"/>
    </person>
    <person id="ped8" type="ped_pedestrian" depart="542.99">
        <walk edges="642898747 183689805#0"/>
    </person>
    <person id="ped9" type="ped_pedestrian" depart="610.86">
        <walk edges="366952449#0 183689805#0"/>
    </person>
    <person id="ped10" type="ped_pedestrian" depart="678.74">
        <walk edges="993441704 366952449#0 183689805#0"/>
    </person>
    <person id="ped11" type="ped_pedestrian" depart="746.61">
        <walk edges="624604436 852188473"/>
    </person>
    <person id="ped12" type="ped_pedestrian" depart="814.48">
        <walk edges="183689805#0"/>
    </person>
    <person id="ped13" type="ped_pedestrian" depart="882.36">
        <walk edges="993441703 642898747 183689805#0"/>
    </person>
    <person id="ped14" type="ped_pedestrian" depart="950.23">
        <walk edges="993441704 366952449#0 642898747 993441703"/>
    </person>
    <person id="ped15" type="ped_pedestrian" depart="1018.10">
        <walk edges="993441703"/>
    </person>
    <person id="ped16" type="ped_pedestrian" depart="1085.98">
        <walk edges="183689805#0 642898747 993441703"/>
    </person>
    <person id="ped17" type="ped_pedestrian" depart="1153.85">
        <walk edges="366952449#0 183689805#0"/>
    </person>
    <person id="ped18" type="ped_pedestrian" depart="1221.72">
        <walk edges="366952449#0 642898747"/>
    </person>
    <person id="ped19" type="ped_pedestrian" depart="1289.60">
        <walk edges="561748189 366949696"/>
    </person>
    <person id="ped20" type="ped_pedestrian" depart="1357.47">
        <walk edges="642898747 993441703"/>
    </person>
    <person id="ped21" type="ped_pedestrian" depart="1425.34">
        <walk edges="624604436"/>
    </person>
    <person id="ped22" type="ped_pedestrian" depart="1493.22">
        <walk edges="561748189"/>
    </person>
    <person id="ped23" type="ped_pedestrian" depart="1561.09">
        <walk edges="870991328"/>
    </person>
    <person id="ped24" type="ped_pedestrian" depart="1628.97">
        <walk edges="561748193 624604434"/>
    </person>
    <person id="ped25" type="ped_pedestrian" depart="1696.84">
        <walk edges="366949696"/>
    </person>
    <person id="ped26" type="ped_pedestrian" depart="1764.71">
        <walk edges="366952449#0 642898747 993441703"/>
    </person>
    <person id="ped27" type="ped_pedestrian" depart="1832.59">
        <walk edges="183689805#0 366952449#0 993441704"/>
    </person>
    <person id="ped28" type="ped_pedestrian" depart="1900.46">
        <walk edges="993441703 642898747 366952449#0"/>
    </person>
    <person id="ped29" type="ped_pedestrian" depart="1968.33">
        <walk edges="183689805#0 642898747 993441703"/>
    </person>
    <person id="ped30" type="ped_pedestrian" depart="2036.21">
        <walk edges="561748193 852188473"/>
    </person>
    <person id="ped31" type="ped_pedestrian" depart="2104.08">
        <walk edges="852188473 561748193"/>
    </person>
    <person id="ped32" type="ped_pedestrian" depart="2171.95">
        <walk edges="561748193 852188473"/>
    </person>
    <person id="ped33" type="ped_pedestrian" depart="2239.83">
        <walk edges="993441703 642898747 183689805#0"/>
    </person>
    <person id="ped34" type="ped_pedestrian" depart="2307.70">
        <walk edges="642898747 183689805#0"/>
    </person>
    <person id="ped35" type="ped_pedestrian" depart="2375.57">
        <walk edges="624604434 561748193"/>
    </person>
    <person id="ped36" type="ped_pedestrian" depart="2443.45">
        <walk edges="993441704 366952449#0 642898747"/>
    </person>
    <person id="ped37" type="ped_pedestrian" depart="2511.32">
        <walk edges="993441704 366952449#0"/>
    </person>
    <person id="ped38" type="ped_pedestrian" depart="2579.20">
        <walk edges="993441704 366952449#0 642898747 993441703"/>
    </person>
    <person id="ped39" type="ped_pedestrian" depart="2647.07">
        <walk edges="561748193 852188473 624604436"/>
    </person>
    <person id="ped40" type="ped_pedestrian" depart="2714.94">
        <walk edges="642898747 366952449#0 993441704"/>
    </person>
    <person id="ped41" type="ped_pedestrian" depart="2782.82">
        <walk edges="993441703 642898747"/>
    </person>
    <person id="ped42" type="ped_pedestrian" depart="2850.69">
        <walk edges="624604436"/>
    </person>
    <person id="ped43" type="ped_pedestrian" depart="2918.56">
        <walk edges="993441704 366952449#0 183689805#0"/>
    </person>
    <person id="ped44" type="ped_pedestrian" depart="2986.44">
        <walk edges="993441704 366952449#0"/>
    </person>
    <person id="ped45" type="ped_pedestrian" depart="3054.31">
        <walk edges="993441703 642898747 366952449#0"/>
    </person>
    <person id="ped46" type="ped_pedestrian" depart="3122.18">
        <walk edges="624604436 852188473 561748193"/>
    </person>
    <person id="ped47" type="ped_pedestrian" depart="3190.06">
        <walk edges="366952449#0 642898747 993441703"/>
    </person>
    <person id="ped48" type="ped_pedestrian" depart="3257.93">
        <walk edges="993441703 642898747 366952449#0"/>
    </person>
    <person id="ped49" type="ped_pedestrian" depart="3325.80">
        <walk edges="366949696 561748189"/>
    </person>
    <person id="ped50" type="ped_pedestrian" depart="3393.68">
        <walk edges="366952449#0 642898747 993441703"/>
    </person>
    <person id="ped51" type="ped_pedestrian" depart="3461.55">
        <walk edges="870991328"/>
    </person>
    <person id="ped52" type="ped_pedestrian" depart="3529.43">
        <walk edges="993441704 366952449#0 642898747 993441703"/>
    </person>
    <person id="ped53" type="ped_pedestrian" depart="3597.30">
        <walk edges="993441703 642898747 366952449#0 993441704"/>
    </person>
</routes>
