<?xml version="1.0" encoding="UTF-8"?>

<!-- generated on 2025-10-02 19:04:23.200281 by randomTrips.py v1_24_0+0000-b72eb3fabc8
<configuration>
    <net-file value="osm.net.xml.gz"/>
    <output-trip-file value="osm.truck.trips.xml"/>
    <route-file value="osm.truck.rou.xml"/>
    <prefix value="truck"/>
    <trip-attributes value="departLane=&quot;best&quot;"/>
    <fringe-start-attributes value="departSpeed=&quot;max&quot;"/>
    <vehicle-class value="truck"/>
    <fringe-factor value="5"/>
    <edge-permission value="truck"/>
    <via-edge-types value="highway.motorway,highway.motorway_link,highway.trunk_link,highway.primary_link,highway.secondary_link,highway.tertiary_link"/>
    <seed value="45"/>
    <min-distance value="600.0"/>
    <min-distance.fringe value="10.0"/>
    <remove-loops value="True"/>
    <insertion-density value="8.0"/>
</configuration>
-->

<routes xmlns:xsi="http://www.w3.org/2001/XMLSchema-instance" xsi:noNamespaceSchemaLocation="http://sumo.dlr.de/xsd/routes_file.xsd">
    <vType id="truck_truck" vClass="truck"/>
    <trip id="truck0" depart="0.00" from="-678188678" to="683268248#0" departLane="best" type="truck_truck" departSpeed="max"/>
    <trip id="truck1" depart="61.26" from="870991319#0" to="683268248#0" departLane="best" type="truck_truck" departSpeed="max"/>
    <trip id="truck2" depart="122.51" from="580815653#0" to="427550891#0" departLane="best" type="truck_truck" departSpeed="max"/>
    <trip id="truck3" depart="183.77" from="870991319#0" to="683268248#0" departLane="best" type="truck_truck" departSpeed="max"/>
    <trip id="truck4" depart="245.02" from="-678188678" to="683268248#0" departLane="best" type="truck_truck" departSpeed="max"/>
    <trip id="truck5" depart="306.28" from="580815653#0" to="427550891#0" departLane="best" type="truck_truck" departSpeed="max"/>
    <trip id="truck6" depart="367.53" from="-678188678" to="683268248#0" departLane="best" type="truck_truck" departSpeed="max"/>
    <trip id="truck7" depart="428.79" from="580815653#0" to="427550891#0" departLane="best" type="truck_truck" departSpeed="max"/>
    <trip id="truck8" depart="490.05" from="580815653#0" to="427550891#0" departLane="best" type="truck_truck" departSpeed="max"/>
    <trip id="truck9" depart="551.30" from="870991319#0" to="683268248#0" departLane="best" type="truck_truck" departSpeed="max"/>
    <trip id="truck10" depart="612.56" from="366949696" to="683268248#0" departLane="best" type="truck_truck" departSpeed="max"/>
    <trip id="truck11" depart="673.81" from="366949696" to="683268248#0" departLane="best" type="truck_truck" departSpeed="max"/>
    <trip id="truck12" depart="735.07" from="580815653#0" to="624604434" departLane="best" type="truck_truck" departSpeed="max"/>
    <trip id="truck13" depart="796.32" from="580815653#0" to="624604434" departLane="best" type="truck_truck" departSpeed="max"/>
    <trip id="truck14" depart="857.58" from="870991319#0" to="683268248#0" departLane="best" type="truck_truck" departSpeed="max"/>
    <trip id="truck15" depart="918.83" from="870991319#0" to="683268248#0" departLane="best" type="truck_truck" departSpeed="max"/>
    <trip id="truck16" depart="980.09" from="870991319#0" to="683268248#0" departLane="best" type="truck_truck" departSpeed="max"/>
    <trip id="truck17" depart="1041.35" from="-678188678" to="683268248#0" departLane="best" type="truck_truck" departSpeed="max"/>
    <trip id="truck18" depart="1102.60" from="-678188678" to="683268248#0" departLane="best" type="truck_truck" departSpeed="max"/>
    <trip id="truck19" depart="1163.86" from="-678188678" to="683268248#0" departLane="best" type="truck_truck" departSpeed="max"/>
    <trip id="truck20" depart="1225.11" from="580815653#0" to="561748193" departLane="best" type="truck_truck" departSpeed="max"/>
    <trip id="truck21" depart="1286.37" from="-678188678" to="683268248#0" departLane="best" type="truck_truck" departSpeed="max"/>
    <trip id="truck22" depart="1347.62" from="366949696" to="683268248#0" departLane="best" type="truck_truck" departSpeed="max"/>
    <trip id="truck23" depart="1408.88" from="366949696" to="683268248#0" departLane="best" type="truck_truck" departSpeed="max"/>
    <trip id="truck24" depart="1470.14" from="366949696" to="683268248#0" departLane="best" type="truck_truck" departSpeed="max"/>
    <trip id="truck25" depart="1531.39" from="366949696" to="683268248#0" departLane="best" type="truck_truck" departSpeed="max"/>
    <trip id="truck26" depart="1592.65" from="-678188678" to="683268248#0" departLane="best" type="truck_truck" departSpeed="max"/>
    <trip id="truck27" depart="1653.90" from="-678188678" to="683268248#0" departLane="best" type="truck_truck" departSpeed="max"/>
    <trip id="truck28" depart="1715.16" from="-678188678" to="683268248#0" departLane="best" type="truck_truck" departSpeed="max"/>
    <trip id="truck29" depart="1776.41" from="580815653#0" to="427550891#0" departLane="best" type="truck_truck" departSpeed="max"/>
    <trip id="truck30" depart="1837.67" from="870991319#0" to="683268248#0" departLane="best" type="truck_truck" departSpeed="max"/>
    <trip id="truck31" depart="1898.93" from="580815653#0" to="183689805#0" departLane="best" type="truck_truck" departSpeed="max"/>
    <trip id="truck32" depart="1960.18" from="-678188678" to="683268248#0" departLane="best" type="truck_truck" departSpeed="max"/>
    <trip id="truck33" depart="2021.44" from="-678188678" to="683268248#0" departLane="best" type="truck_truck" departSpeed="max"/>
    <trip id="truck34" depart="2082.69" from="366949696" to="683268248#0" departLane="best" type="truck_truck" departSpeed="max"/>
    <trip id="truck35" depart="2143.95" from="-678188678" to="683268248#0" departLane="best" type="truck_truck" departSpeed="max"/>
    <trip id="truck36" depart="2205.20" from="870991319#0" to="683268248#0" departLane="best" type="truck_truck" departSpeed="max"/>
    <trip id="truck37" depart="2266.46" from="-678188678" to="683268248#0" departLane="best" type="truck_truck" departSpeed="max"/>
    <trip id="truck38" depart="2327.72" from="366949696" to="683268248#0" departLane="best" type="truck_truck" departSpeed="max"/>
    <trip id="truck39" depart="2388.97" from="580815653#0" to="427550891#0" departLane="best" type="truck_truck" departSpeed="max"/>
    <trip id="truck40" depart="2450.23" from="366949696" to="683268248#0" departLane="best" type="truck_truck" departSpeed="max"/>
    <trip id="truck41" depart="2511.48" from="580815653#0" to="624604434" departLane="best" type="truck_truck" departSpeed="max"/>
    <trip id="truck42" depart="2572.74" from="366949696" to="683268248#0" departLane="best" type="truck_truck" departSpeed="max"/>
    <trip id="truck43" depart="2633.99" from="580815653#0" to="427550891#0" departLane="best" type="truck_truck" departSpeed="max"/>
    <trip id="truck44" depart="2695.25" from="580815653#0" to="183689805#0" departLane="best" type="truck_truck" departSpeed="max"/>
    <trip id="truck45" depart="2756.50" from="366949696" to="683268248#0" departLane="best" type="truck_truck" departSpeed="max"/>
    <trip id="truck46" depart="2817.76" from="870991319#0" to="683268248#0" departLane="best" type="truck_truck" departSpeed="max"/>
    <trip id="truck47" depart="2879.02" from="-678188678" to="683268248#0" departLane="best" type="truck_truck" departSpeed="max"/>
    <trip id="truck48" depart="2940.27" from="-678188678" to="683268248#0" departLane="best" type="truck_truck" departSpeed="max"/>
    <trip id="truck49" depart="3001.53" from="580815653#0" to="427550891#0" departLane="best" type="truck_truck" departSpeed="max"/>
    <trip id="truck50" depart="3062.78" from="580815653#0" to="183689805#0" departLane="best" type="truck_truck" departSpeed="max"/>
    <trip id="truck51" depart="3124.04" from="-678188678" to="683268248#0" departLane="best" type="truck_truck" departSpeed="max"/>
    <trip id="truck52" depart="3185.29" from="-678188678" to="683268248#0" departLane="best" type="truck_truck" departSpeed="max"/>
    <trip id="truck53" depart="3246.55" from="580815653#0" to="427550891#0" departLane="best" type="truck_truck" departSpeed="max"/>
    <trip id="truck54" depart="3307.81" from="366949696" to="683268248#0" departLane="best" type="truck_truck" departSpeed="max"/>
    <trip id="truck55" depart="3369.06" from="580815653#0" to="624604434" departLane="best" type="truck_truck" departSpeed="max"/>
    <trip id="truck56" depart="3430.32" from="580815653#0" to="561748193" departLane="best" type="truck_truck" departSpeed="max"/>
    <trip id="truck57" depart="3491.57" from="366949696" to="683268248#0" departLane="best" type="truck_truck" departSpeed="max"/>
    <trip id="truck58" depart="3552.83" from="366949696" to="683268248#0" departLane="best" type="truck_truck" departSpeed="max"/>
</routes>
