<?xml version='1.0' encoding='utf-8'?>
<routes xmlns:xsi="http://www.w3.org/2001/XMLSchema-instance" xsi:noNamespaceSchemaLocation="http://sumo.dlr.de/xsd/routes_file.xsd"><vType id="motorcycle_motorcycle" vClass="motorcycle" guiShape="motorcycle" color="255,0,0" maxSpeed="50.0" length="2.5" />
    <trip id="motorcycle_768429_0" depart="1026.00" from="130049554#0" to="665787533" departLane="best" type="motorcycle_motorcycle" departSpeed="max" /><trip id="motorcycle_768429_1" depart="3078.01" from="665787524" to="129113596#0" departLane="best" type="motorcycle_motorcycle" departSpeed="max" /><trip id="motorcycle_768429_2" depart="2667.61" from="-130048902#1" to="795097767#0" departLane="best" type="motorcycle_motorcycle" departSpeed="max" /><trip id="motorcycle_768429_3" depart="820.80" from="-130048902#1" to="129113596#0" departLane="best" type="motorcycle_motorcycle" departSpeed="max" /><trip id="motorcycle_768429_4" depart="1436.40" from="665787524" to="795097767#0" departLane="best" type="motorcycle_motorcycle" departSpeed="max" /><trip id="motorcycle_768429_5" depart="205.20" from="-130048902#1" to="129113596#0" departLane="best" type="motorcycle_motorcycle" departSpeed="max" /><trip id="motorcycle_768429_6" depart="2052.01" from="183710979#0" to="130048903#0" departLane="best" type="motorcycle_motorcycle" departSpeed="max" /><trip id="motorcycle_768429_7" depart="0.00" from="-130048902#1" to="665787533" departLane="best" type="motorcycle_motorcycle" departSpeed="max" /><trip id="motorcycle_768429_8" depart="2872.81" from="665787524" to="-665787530" departLane="best" type="motorcycle_motorcycle" departSpeed="max" /><trip id="motorcycle_768429_9" depart="2462.41" from="130048903#0" to="-665515504" departLane="best" type="motorcycle_motorcycle" /><trip id="motorcycle_768429_10" depart="1846.81" from="130049554#0" to="129113596#0" departLane="best" type="motorcycle_motorcycle" departSpeed="max" /><trip id="motorcycle_768429_11" depart="3488.41" from="130049554#0" to="795097767#0" departLane="best" type="motorcycle_motorcycle" departSpeed="max" /><trip id="motorcycle_768429_12" depart="410.40" from="183710979#0" to="665787533" departLane="best" type="motorcycle_motorcycle" departSpeed="max" /><trip id="motorcycle_768429_13" depart="2257.21" from="130049554#0" to="130048903#0" departLane="best" type="motorcycle_motorcycle" departSpeed="max" /><trip id="motorcycle_768429_enh_14" depart="0.00" from="130048903#0" to="129113596#0" type="motorcycle_motorcycle" color="255,0,0" departLane="best" departSpeed="max" departPos="random" speedFactor="1.01" /><trip id="motorcycle_768429_enh_15" depart="0.00" from="-130048902#1" to="130048903#0" type="motorcycle_motorcycle" color="128,0,128" departLane="best" departSpeed="max" departPos="random" speedFactor="1.09" /><trip id="motorcycle_768429_enh_16" depart="1.37" from="130049554#0" to="130048903#0" type="motorcycle_motorcycle" color="0,0,0" departLane="best" departSpeed="max" departPos="random" speedFactor="0.87" /><trip id="motorcycle_768429_enh_17" depart="8.45" from="130048903#0" to="129113596#0" type="motorcycle_motorcycle" color="255,165,0" departLane="best" departSpeed="max" departPos="random" speedFactor="0.97" /><trip id="motorcycle_768429_enh_18" depart="178.67" from="130049554#0" to="-665787530" type="motorcycle_motorcycle" color="255,255,255" departLane="best" departSpeed="max" departPos="random" speedFactor="0.9" /><trip id="motorcycle_768429_enh_19" depart="215.62" from="130049554#0" to="665787533" type="motorcycle_motorcycle" color="255,255,0" departLane="best" departSpeed="max" departPos="random" speedFactor="0.86" /><trip id="motorcycle_768429_enh_20" depart="252.13" from="130049554#0" to="-665787530" type="motorcycle_motorcycle" color="128,0,128" departLane="best" departSpeed="max" departPos="random" speedFactor="1.01" /><trip id="motorcycle_768429_enh_21" depart="337.32" from="-130048902#1" to="129113596#0" type="motorcycle_motorcycle" color="0,0,0" departLane="best" departSpeed="max" departPos="random" speedFactor="0.99" /><trip id="motorcycle_768429_enh_22" depart="427.67" from="-130048902#1" to="130048903#0" type="motorcycle_motorcycle" color="128,0,128" departLane="best" departSpeed="max" departPos="random" speedFactor="0.96" /><trip id="motorcycle_768429_enh_23" depart="464.74" from="-130048902#1" to="129113596#0" type="motorcycle_motorcycle" color="0,0,255" departLane="best" departSpeed="max" departPos="random" speedFactor="1.05" /><trip id="motorcycle_768429_enh_24" depart="500.40" from="665787524" to="795097767#0" type="motorcycle_motorcycle" color="255,255,0" departLane="best" departSpeed="max" departPos="random" speedFactor="0.89" /><trip id="motorcycle_768429_enh_25" depart="504.60" from="183710979#0" to="665787533" type="motorcycle_motorcycle" color="0,0,255" departLane="best" departSpeed="max" departPos="random" speedFactor="0.9" /><trip id="motorcycle_768429_enh_26" depart="686.00" from="130049554#0" to="130048903#0" type="motorcycle_motorcycle" color="255,165,0" departLane="best" departSpeed="max" departPos="random" speedFactor="0.95" /><trip id="motorcycle_768429_enh_27" depart="693.71" from="130049554#0" to="-665515504" type="motorcycle_motorcycle" color="0,0,0" departLane="best" departSpeed="max" departPos="random" speedFactor="1.11" /><trip id="motorcycle_768429_enh_28" depart="761.58" from="130048903#0" to="-665515504" type="motorcycle_motorcycle" color="255,255,0" departLane="best" departSpeed="max" departPos="random" speedFactor="0.9" /><trip id="motorcycle_768429_enh_29" depart="863.91" from="130048903#0" to="-665515504" type="motorcycle_motorcycle" color="255,0,0" departLane="best" departSpeed="max" departPos="random" speedFactor="1.11" /><trip id="motorcycle_768429_enh_30" depart="878.15" from="183710979#0" to="795097767#0" type="motorcycle_motorcycle" color="255,0,0" departLane="best" departSpeed="max" departPos="random" speedFactor="0.96" /><trip id="motorcycle_768429_enh_31" depart="923.11" from="-130048902#1" to="-665515504" type="motorcycle_motorcycle" color="0,0,0" departLane="best" departSpeed="max" departPos="random" speedFactor="0.91" /><trip id="motorcycle_768429_enh_32" depart="1026.28" from="130049554#0" to="-665515504" type="motorcycle_motorcycle" color="0,0,255" departLane="best" departSpeed="max" departPos="random" speedFactor="0.88" /><trip id="motorcycle_768429_enh_33" depart="1027.23" from="130049554#0" to="130048903#0" type="motorcycle_motorcycle" color="255,0,0" departLane="best" departSpeed="max" departPos="random" speedFactor="0.98" /><trip id="motorcycle_768429_enh_34" depart="1159.48" from="665787524" to="795097767#0" type="motorcycle_motorcycle" color="0,0,0" departLane="best" departSpeed="max" departPos="random" speedFactor="0.99" /><trip id="motorcycle_768429_enh_35" depart="1186.10" from="183710979#0" to="-665515504" type="motorcycle_motorcycle" color="255,0,0" departLane="best" departSpeed="max" departPos="random" speedFactor="0.9" /><trip id="motorcycle_768429_enh_36" depart="1277.51" from="-130048902#1" to="795097767#0" type="motorcycle_motorcycle" color="0,0,0" departLane="best" departSpeed="max" departPos="random" speedFactor="1.08" /><trip id="motorcycle_768429_enh_37" depart="1318.09" from="130049554#0" to="-665787530" type="motorcycle_motorcycle" color="255,165,0" departLane="best" departSpeed="max" departPos="random" speedFactor="0.88" /><trip id="motorcycle_768429_enh_38" depart="1346.07" from="130049554#0" to="-665515504" type="motorcycle_motorcycle" color="255,255,255" departLane="best" departSpeed="max" departPos="random" speedFactor="1.05" /><trip id="motorcycle_768429_enh_39" depart="1372.62" from="130049554#0" to="-665515504" type="motorcycle_motorcycle" color="128,0,128" departLane="best" departSpeed="max" departPos="random" speedFactor="1.09" /><trip id="motorcycle_768429_enh_40" depart="1540.20" from="183710979#0" to="-665515504" type="motorcycle_motorcycle" color="0,0,0" departLane="best" departSpeed="max" departPos="random" speedFactor="0.95" /><trip id="motorcycle_768429_enh_41" depart="1541.16" from="-130048902#1" to="130048903#0" type="motorcycle_motorcycle" color="0,0,0" departLane="best" departSpeed="max" departPos="random" speedFactor="1.12" /><trip id="motorcycle_768429_enh_42" depart="1616.77" from="183710979#0" to="129113596#0" type="motorcycle_motorcycle" color="0,128,0" departLane="best" departSpeed="max" departPos="random" speedFactor="0.9" /><trip id="motorcycle_768429_enh_43" depart="1704.49" from="183710979#0" to="130048903#0" type="motorcycle_motorcycle" color="255,0,0" departLane="best" departSpeed="max" departPos="random" speedFactor="1.07" /><trip id="motorcycle_768429_enh_44" depart="1753.05" from="665787524" to="795097767#0" type="motorcycle_motorcycle" color="0,128,0" departLane="best" departSpeed="max" departPos="random" speedFactor="1.08" /><trip id="motorcycle_768429_enh_45" depart="1795.16" from="183710979#0" to="-665515504" type="motorcycle_motorcycle" color="255,165,0" departLane="best" departSpeed="max" departPos="random" speedFactor="0.86" /><trip id="motorcycle_768429_enh_46" depart="1848.94" from="665787524" to="665787533" type="motorcycle_motorcycle" color="0,0,0" departLane="best" departSpeed="max" departPos="random" speedFactor="1.05" /><trip id="motorcycle_768429_enh_47" depart="1877.71" from="130048903#0" to="129113596#0" type="motorcycle_motorcycle" color="0,0,255" departLane="best" departSpeed="max" departPos="random" speedFactor="0.97" /><trip id="motorcycle_768429_enh_48" depart="2047.78" from="130048903#0" to="-665515504" type="motorcycle_motorcycle" color="128,0,128" departLane="best" departSpeed="max" departPos="random" speedFactor="0.97" /><trip id="motorcycle_768429_enh_49" depart="2055.31" from="130048903#0" to="129113596#0" type="motorcycle_motorcycle" color="255,255,255" departLane="best" departSpeed="max" departPos="random" speedFactor="1.11" /><trip id="motorcycle_768429_enh_50" depart="2085.21" from="130049554#0" to="-665515504" type="motorcycle_motorcycle" color="255,0,0" departLane="best" departSpeed="max" departPos="random" speedFactor="0.97" /><trip id="motorcycle_768429_enh_51" depart="2190.65" from="665787524" to="-665787530" type="motorcycle_motorcycle" color="128,0,128" departLane="best" departSpeed="max" departPos="random" speedFactor="0.97" /><trip id="motorcycle_768429_enh_52" depart="2212.41" from="665787524" to="665787533" type="motorcycle_motorcycle" color="255,255,0" departLane="best" departSpeed="max" departPos="random" speedFactor="0.96" /><trip id="motorcycle_768429_enh_53" depart="2298.41" from="183710979#0" to="665787533" type="motorcycle_motorcycle" color="255,165,0" departLane="best" departSpeed="max" departPos="random" speedFactor="0.87" /><trip id="motorcycle_768429_enh_54" depart="2324.57" from="183710979#0" to="-665515504" type="motorcycle_motorcycle" color="128,0,128" departLane="best" departSpeed="max" departPos="random" speedFactor="0.88" /><trip id="motorcycle_768429_enh_55" depart="2393.09" from="183710979#0" to="665787533" type="motorcycle_motorcycle" color="0,128,0" departLane="best" departSpeed="max" departPos="random" speedFactor="0.9" /><trip id="motorcycle_768429_enh_56" depart="2525.55" from="183710979#0" to="130048903#0" type="motorcycle_motorcycle" color="255,0,0" departLane="best" departSpeed="max" departPos="random" speedFactor="0.89" /><trip id="motorcycle_768429_enh_57" depart="2557.81" from="665787524" to="-665787530" type="motorcycle_motorcycle" color="0,0,255" departLane="best" departSpeed="max" departPos="random" speedFactor="0.88" /><trip id="motorcycle_768429_enh_58" depart="2593.37" from="183710979#0" to="-665515504" type="motorcycle_motorcycle" color="255,165,0" departLane="best" departSpeed="max" departPos="random" speedFactor="1.0" /><trip id="motorcycle_768429_enh_59" depart="2605.70" from="183710979#0" to="665787533" type="motorcycle_motorcycle" color="255,255,0" departLane="best" departSpeed="max" departPos="random" speedFactor="1.05" /><trip id="motorcycle_768429_enh_60" depart="2723.15" from="-130048902#1" to="129113596#0" type="motorcycle_motorcycle" color="0,0,255" departLane="best" departSpeed="max" departPos="random" speedFactor="1.07" /><trip id="motorcycle_768429_enh_61" depart="2760.92" from="183710979#0" to="130048903#0" type="motorcycle_motorcycle" color="0,128,0" departLane="best" departSpeed="max" departPos="random" speedFactor="1.15" /><trip id="motorcycle_768429_enh_62" depart="2837.68" from="183710979#0" to="795097767#0" type="motorcycle_motorcycle" color="255,255,0" departLane="best" departSpeed="max" departPos="random" speedFactor="1.09" /><trip id="motorcycle_768429_enh_63" depart="2905.95" from="130048903#0" to="129113596#0" type="motorcycle_motorcycle" color="0,0,0" departLane="best" departSpeed="max" departPos="random" speedFactor="0.87" /><trip id="motorcycle_768429_enh_64" depart="2993.58" from="-130048902#1" to="-665787530" type="motorcycle_motorcycle" color="128,0,128" departLane="best" departSpeed="max" departPos="random" speedFactor="0.91" /><trip id="motorcycle_768429_enh_65" depart="3038.34" from="130049554#0" to="-665515504" type="motorcycle_motorcycle" color="128,0,128" departLane="best" departSpeed="max" departPos="random" speedFactor="1.05" /><trip id="motorcycle_768429_enh_66" depart="3060.65" from="665787524" to="-665787530" type="motorcycle_motorcycle" color="128,0,128" departLane="best" departSpeed="max" departPos="random" speedFactor="0.98" /><trip id="motorcycle_768429_enh_67" depart="3088.42" from="130049554#0" to="-665515504" type="motorcycle_motorcycle" color="255,255,0" departLane="best" departSpeed="max" departPos="random" speedFactor="0.96" /><trip id="motorcycle_768429_enh_68" depart="3238.65" from="130049554#0" to="-665515504" type="motorcycle_motorcycle" color="0,128,0" departLane="best" departSpeed="max" departPos="random" speedFactor="1.01" /><trip id="motorcycle_768429_enh_69" depart="3243.12" from="665787524" to="795097767#0" type="motorcycle_motorcycle" color="0,0,0" departLane="best" departSpeed="max" departPos="random" speedFactor="0.94" /><trip id="motorcycle_768429_enh_70" depart="3371.42" from="-130048902#1" to="-665515504" type="motorcycle_motorcycle" color="255,0,0" departLane="best" departSpeed="max" departPos="random" speedFactor="0.86" /><trip id="motorcycle_768429_enh_71" depart="3414.98" from="130049554#0" to="665787533" type="motorcycle_motorcycle" color="255,165,0" departLane="best" departSpeed="max" departPos="random" speedFactor="0.99" /><trip id="motorcycle_768429_enh_72" depart="3455.22" from="130049554#0" to="-665515504" type="motorcycle_motorcycle" color="0,0,255" departLane="best" departSpeed="max" departPos="random" speedFactor="1.0" /><trip id="motorcycle_768429_enh_73" depart="3468.77" from="-130048902#1" to="795097767#0" type="motorcycle_motorcycle" color="255,165,0" departLane="best" departSpeed="max" departPos="random" speedFactor="1.07" /><trip id="motorcycle_768429_enh_74" depart="3573.28" from="-130048902#1" to="129113596#0" type="motorcycle_motorcycle" color="0,0,255" departLane="best" departSpeed="max" departPos="random" speedFactor="0.94" /></routes>