<?xml version='1.0' encoding='utf-8'?>
<routes xmlns:xsi="http://www.w3.org/2001/XMLSchema-instance" xsi:noNamespaceSchemaLocation="http://sumo.dlr.de/xsd/routes_file.xsd"><vType id="veh_passenger" vClass="passenger" guiShape="passenger" color="128,128,128" maxSpeed="55.56" accel="2.6" decel="4.5" />
    <trip id="passenger_759480_0" depart="342.00" from="-130048902#1" to="-665515504" departLane="best" type="veh_passenger" departSpeed="max" /><trip id="passenger_759480_1" depart="136.80" from="665787524" to="795097767#0" departLane="best" type="veh_passenger" departSpeed="max" /><trip id="passenger_759480_2" depart="2941.21" from="665787524" to="665787533" departLane="best" type="veh_passenger" departSpeed="max" /><trip id="passenger_759480_3" depart="1504.81" from="130049554#0" to="-665515504" departLane="best" type="veh_passenger" departSpeed="max" /><trip id="passenger_759480_4" depart="273.60" from="-130048902#1" to="795097767#0" departLane="best" type="veh_passenger" departSpeed="max" /><trip id="passenger_759480_5" depart="1915.21" from="665787524" to="665787533" departLane="best" type="veh_passenger" departSpeed="max" /><trip id="passenger_759480_6" depart="0.00" from="130049554#0" to="130048903#0" departLane="best" type="veh_passenger" departSpeed="max" /><trip id="passenger_759480_7" depart="2736.01" from="130049554#0" to="130048903#0" departLane="best" type="veh_passenger" departSpeed="max" /><trip id="passenger_759480_8" depart="2394.01" from="130049554#0" to="129113596#0" departLane="best" type="veh_passenger" departSpeed="max" /><trip id="passenger_759480_9" depart="3214.81" from="665787524" to="-665787530" departLane="best" type="veh_passenger" departSpeed="max" /><trip id="passenger_759480_10" depart="1094.40" from="-130048902#1" to="795097767#0" departLane="best" type="veh_passenger" departSpeed="max" /><trip id="passenger_759480_11" depart="2872.81" from="130049554#0" to="-665787530" departLane="best" type="veh_passenger" departSpeed="max" /><trip id="passenger_759480_12" depart="3146.41" from="130049554#0" to="665787533" departLane="best" type="veh_passenger" departSpeed="max" /><trip id="passenger_759480_13" depart="1436.40" from="130049554#0" to="665787533" departLane="best" type="veh_passenger" departSpeed="max" /><trip id="passenger_759480_14" depart="957.60" from="183710979#0" to="130048903#0" departLane="best" type="veh_passenger" departSpeed="max" /><trip id="passenger_759480_15" depart="3283.21" from="-130048902#1" to="-665515504" departLane="best" type="veh_passenger" departSpeed="max" /><trip id="passenger_759480_16" depart="2530.81" from="665787524" to="665787533" departLane="best" type="veh_passenger" departSpeed="max" /><trip id="passenger_759480_17" depart="3488.41" from="665787524" to="795097767#0" departLane="best" type="veh_passenger" departSpeed="max" /><trip id="passenger_759480_18" depart="2462.41" from="-130048902#1" to="795097767#0" departLane="best" type="veh_passenger" departSpeed="max" /><trip id="passenger_759480_19" depart="889.20" from="665787524" to="665787533" departLane="best" type="veh_passenger" departSpeed="max" /><trip id="passenger_759480_20" depart="1026.00" from="665787524" to="665787533" departLane="best" type="veh_passenger" departSpeed="max" /><trip id="passenger_759480_21" depart="1778.41" from="130049554#0" to="129113596#0" departLane="best" type="veh_passenger" departSpeed="max" /><trip id="passenger_759480_22" depart="2599.21" from="665787524" to="795097767#0" departLane="best" type="veh_passenger" departSpeed="max" /><trip id="passenger_759480_23" depart="1162.80" from="183710979#0" to="130048903#0" departLane="best" type="veh_passenger" departSpeed="max" /><trip id="passenger_759480_24" depart="478.80" from="183710979#0" to="795097767#0" departLane="best" type="veh_passenger" departSpeed="max" /><trip id="passenger_759480_25" depart="1231.20" from="183710979#0" to="-665515504" departLane="best" type="veh_passenger" departSpeed="max" /><trip id="passenger_759480_26" depart="410.40" from="665787524" to="-665787530" departLane="best" type="veh_passenger" departSpeed="max" /><trip id="passenger_759480_27" depart="820.80" from="183710979#0" to="129113596#0" departLane="best" type="veh_passenger" departSpeed="max" /><trip id="passenger_759480_28" depart="1983.61" from="-130048902#1" to="129113596#0" departLane="best" type="veh_passenger" departSpeed="max" /><trip id="passenger_759480_29" depart="3078.01" from="130049554#0" to="665787533" departLane="best" type="veh_passenger" departSpeed="max" /><trip id="passenger_759480_30" depart="2667.61" from="183710979#0" to="129113596#0" departLane="best" type="veh_passenger" departSpeed="max" /><trip id="passenger_759480_31" depart="752.40" from="665787524" to="795097767#0" departLane="best" type="veh_passenger" departSpeed="max" /><trip id="passenger_759480_32" depart="2257.21" from="130049554#0" to="129113596#0" departLane="best" type="veh_passenger" departSpeed="max" /><trip id="passenger_759480_33" depart="205.20" from="130049554#0" to="129113596#0" departLane="best" type="veh_passenger" departSpeed="max" /><trip id="passenger_759480_34" depart="1710.01" from="130049554#0" to="129113596#0" departLane="best" type="veh_passenger" departSpeed="max" /><trip id="passenger_759480_35" depart="684.00" from="130049554#0" to="-665515504" departLane="best" type="veh_passenger" departSpeed="max" /><trip id="passenger_759480_36" depart="2804.41" from="130049554#0" to="665787533" departLane="best" type="veh_passenger" departSpeed="max" /><trip id="passenger_759480_37" depart="3351.61" from="665787524" to="-665787530" departLane="best" type="veh_passenger" departSpeed="max" /><trip id="passenger_759480_38" depart="1846.81" from="-130048902#1" to="129113596#0" departLane="best" type="veh_passenger" departSpeed="max" /><trip id="passenger_759480_39" depart="1573.21" from="665787524" to="795097767#0" departLane="best" type="veh_passenger" departSpeed="max" /><trip id="passenger_759480_40" depart="3009.61" from="183710979#0" to="795097767#0" departLane="best" type="veh_passenger" departSpeed="max" /><trip id="passenger_759480_41" depart="2325.61" from="183710979#0" to="130048903#0" departLane="best" type="veh_passenger" departSpeed="max" /><trip id="passenger_759480_enh_42" depart="0.00" from="130048903#0" to="129113596#0" type="veh_passenger" color="0,255,255" departLane="best" departSpeed="max" departPos="random" speedFactor="1.12" /><trip id="passenger_759480_enh_43" depart="0.00" from="130049554#0" to="130048903#0" type="veh_passenger" color="255,165,0" departLane="best" departSpeed="max" departPos="random" speedFactor="1.09" /><trip id="passenger_759480_enh_44" depart="0.00" from="-130048902#1" to="-665515504" type="veh_passenger" color="139,69,19" departLane="best" departSpeed="max" departPos="random" speedFactor="1.02" /><trip id="passenger_759480_enh_45" depart="1.20" from="665787524" to="-665787530" type="veh_passenger" color="255,20,147" departLane="best" departSpeed="max" departPos="random" speedFactor="0.89" /><trip id="passenger_759480_enh_46" depart="182.00" from="130049554#0" to="665787533" type="veh_passenger" color="192,192,192" departLane="best" departSpeed="max" departPos="random" speedFactor="0.9" /><trip id="passenger_759480_enh_47" depart="236.47" from="-130048902#1" to="795097767#0" type="veh_passenger" color="128,0,128" departLane="best" departSpeed="max" departPos="random" speedFactor="0.97" /><trip id="passenger_759480_enh_48" depart="257.20" from="130049554#0" to="-665787530" type="veh_passenger" color="0,255,255" departLane="best" departSpeed="max" departPos="random" speedFactor="1.04" /><trip id="passenger_759480_enh_49" depart="343.99" from="183710979#0" to="-665515504" type="veh_passenger" color="255,0,0" departLane="best" departSpeed="max" departPos="random" speedFactor="0.9" /><trip id="passenger_759480_enh_50" depart="452.41" from="130048903#0" to="129113596#0" type="veh_passenger" color="0,0,255" departLane="best" departSpeed="max" departPos="random" speedFactor="0.86" /><trip id="passenger_759480_enh_51" depart="455.23" from="665787524" to="130048903#0" type="veh_passenger" color="128,0,128" departLane="best" departSpeed="max" departPos="random" speedFactor="1.01" /><trip id="passenger_759480_enh_52" depart="510.40" from="-130048902#1" to="130048903#0" type="veh_passenger" color="50,205,50" departLane="best" departSpeed="max" departPos="random" speedFactor="0.89" /><trip id="passenger_759480_enh_53" depart="514.74" from="665787524" to="665787533" type="veh_passenger" color="50,205,50" departLane="best" departSpeed="max" departPos="random" speedFactor="1.0" /><trip id="passenger_759480_enh_54" depart="707.05" from="183710979#0" to="130048903#0" type="veh_passenger" color="255,165,0" departLane="best" departSpeed="max" departPos="random" speedFactor="0.87" /><trip id="passenger_759480_enh_55" depart="708.88" from="-130048902#1" to="-665787530" type="veh_passenger" color="128,0,128" departLane="best" departSpeed="max" departPos="random" speedFactor="1.04" /><trip id="passenger_759480_enh_56" depart="776.79" from="130049554#0" to="-665515504" type="veh_passenger" color="128,128,128" departLane="best" departSpeed="max" departPos="random" speedFactor="0.87" /><trip id="passenger_759480_enh_57" depart="880.17" from="183710979#0" to="665787533" type="veh_passenger" color="139,69,19" departLane="best" departSpeed="max" departPos="random" speedFactor="0.88" /><trip id="passenger_759480_enh_58" depart="880.58" from="665787524" to="795097767#0" type="veh_passenger" color="0,0,255" departLane="best" departSpeed="max" departPos="random" speedFactor="1.08" /><trip id="passenger_759480_enh_59" depart="934.66" from="130048903#0" to="129113596#0" type="veh_passenger" color="0,128,0" departLane="best" departSpeed="max" departPos="random" speedFactor="0.95" /><trip id="passenger_759480_enh_60" depart="1046.56" from="183710979#0" to="-665515504" type="veh_passenger" color="0,0,0" departLane="best" departSpeed="max" departPos="random" speedFactor="1.11" /><trip id="passenger_759480_enh_61" depart="1047.25" from="183710979#0" to="130048903#0" type="veh_passenger" color="0,0,255" departLane="best" departSpeed="max" departPos="random" speedFactor="0.9" /><trip id="passenger_759480_enh_62" depart="1176.29" from="183710979#0" to="129113596#0" type="veh_passenger" color="139,69,19" departLane="best" departSpeed="max" departPos="random" speedFactor="1.06" /><trip id="passenger_759480_enh_63" depart="1209.45" from="665787524" to="-665787530" type="veh_passenger" color="255,255,255" departLane="best" departSpeed="max" departPos="random" speedFactor="1.11" /><trip id="passenger_759480_enh_64" depart="1302.86" from="665787524" to="795097767#0" type="veh_passenger" color="139,69,19" departLane="best" departSpeed="max" departPos="random" speedFactor="0.86" /><trip id="passenger_759480_enh_65" depart="1339.19" from="130049554#0" to="665787533" type="veh_passenger" color="139,69,19" departLane="best" departSpeed="max" departPos="random" speedFactor="0.89" /><trip id="passenger_759480_enh_66" depart="1372.75" from="665787524" to="-665787530" type="veh_passenger" color="192,192,192" departLane="best" departSpeed="max" departPos="random" speedFactor="0.88" /><trip id="passenger_759480_enh_67" depart="1417.18" from="-130048902#1" to="-665515504" type="veh_passenger" color="139,69,19" departLane="best" departSpeed="max" departPos="random" speedFactor="0.87" /><trip id="passenger_759480_enh_68" depart="1570.22" from="665787524" to="-665787530" type="veh_passenger" color="255,255,255" departLane="best" departSpeed="max" departPos="random" speedFactor="1.09" /><trip id="passenger_759480_enh_69" depart="1571.58" from="130048903#0" to="-665515504" type="veh_passenger" color="0,0,0" departLane="best" departSpeed="max" departPos="random" speedFactor="0.99" /><trip id="passenger_759480_enh_70" depart="1634.85" from="-130048902#1" to="-665787530" type="veh_passenger" color="255,165,0" departLane="best" departSpeed="max" departPos="random" speedFactor="0.86" /><trip id="passenger_759480_enh_71" depart="1744.93" from="-130048902#1" to="-665787530" type="veh_passenger" color="255,0,0" departLane="best" departSpeed="max" departPos="random" speedFactor="0.91" /><trip id="passenger_759480_enh_72" depart="1787.67" from="130048903#0" to="-665515504" type="veh_passenger" color="139,69,19" departLane="best" departSpeed="max" departPos="random" speedFactor="1.02" /><trip id="passenger_759480_enh_73" depart="1830.64" from="183710979#0" to="795097767#0" type="veh_passenger" color="128,128,128" departLane="best" departSpeed="max" departPos="random" speedFactor="1.12" /><trip id="passenger_759480_enh_74" depart="1883.52" from="665787524" to="795097767#0" type="veh_passenger" color="139,69,19" departLane="best" departSpeed="max" departPos="random" speedFactor="1.11" /><trip id="passenger_759480_enh_75" depart="1914.40" from="183710979#0" to="-665515504" type="veh_passenger" color="128,0,128" departLane="best" departSpeed="max" departPos="random" speedFactor="1.09" /><trip id="passenger_759480_enh_76" depart="2087.80" from="-130048902#1" to="-665515504" type="veh_passenger" color="255,20,147" departLane="best" departSpeed="max" departPos="random" speedFactor="1.03" /><trip id="passenger_759480_enh_77" depart="2095.86" from="665787524" to="795097767#0" type="veh_passenger" color="255,255,0" departLane="best" departSpeed="max" departPos="random" speedFactor="1.09" /><trip id="passenger_759480_enh_78" depart="2120.20" from="665787524" to="-665787530" type="veh_passenger" color="0,0,0" departLane="best" departSpeed="max" departPos="random" speedFactor="1.12" /><trip id="passenger_759480_enh_79" depart="2233.34" from="-130048902#1" to="129113596#0" type="veh_passenger" color="50,205,50" departLane="best" departSpeed="max" departPos="random" speedFactor="1.14" /><trip id="passenger_759480_enh_80" depart="2258.15" from="665787524" to="795097767#0" type="veh_passenger" color="192,192,192" departLane="best" departSpeed="max" departPos="random" speedFactor="0.96" /><trip id="passenger_759480_enh_81" depart="2361.00" from="-130048902#1" to="-665787530" type="veh_passenger" color="128,128,128" departLane="best" departSpeed="max" departPos="random" speedFactor="1.06" /><trip id="passenger_759480_enh_82" depart="2370.19" from="665787524" to="795097767#0" type="veh_passenger" color="0,255,255" departLane="best" departSpeed="max" departPos="random" speedFactor="1.09" /><trip id="passenger_759480_enh_83" depart="2439.78" from="130049554#0" to="-665787530" type="veh_passenger" color="255,20,147" departLane="best" departSpeed="max" departPos="random" speedFactor="1.1" /><trip id="passenger_759480_enh_84" depart="2578.72" from="130049554#0" to="-665787530" type="veh_passenger" color="255,255,255" departLane="best" departSpeed="max" departPos="random" speedFactor="0.96" /><trip id="passenger_759480_enh_85" depart="2602.64" from="130049554#0" to="-665787530" type="veh_passenger" color="0,0,0" departLane="best" departSpeed="max" departPos="random" speedFactor="1.05" /><trip id="passenger_759480_enh_86" depart="2644.05" from="130049554#0" to="129113596#0" type="veh_passenger" color="128,128,128" departLane="best" departSpeed="max" departPos="random" speedFactor="0.97" /><trip id="passenger_759480_enh_87" depart="2656.92" from="-130048902#1" to="795097767#0" type="veh_passenger" color="255,165,0" departLane="best" departSpeed="max" departPos="random" speedFactor="1.05" /><trip id="passenger_759480_enh_88" depart="2776.51" from="183710979#0" to="795097767#0" type="veh_passenger" color="50,205,50" departLane="best" departSpeed="max" departPos="random" speedFactor="1.03" /><trip id="passenger_759480_enh_89" depart="2810.38" from="665787524" to="795097767#0" type="veh_passenger" color="0,128,0" departLane="best" departSpeed="max" departPos="random" speedFactor="0.99" /><trip id="passenger_759480_enh_90" depart="2893.43" from="183710979#0" to="129113596#0" type="veh_passenger" color="50,205,50" departLane="best" departSpeed="max" departPos="random" speedFactor="1.02" /><trip id="passenger_759480_enh_91" depart="2962.65" from="130049554#0" to="129113596#0" type="veh_passenger" color="255,255,255" departLane="best" departSpeed="max" departPos="random" speedFactor="0.97" /><trip id="passenger_759480_enh_92" depart="3050.27" from="665787524" to="-665787530" type="veh_passenger" color="128,0,128" departLane="best" departSpeed="max" departPos="random" speedFactor="0.97" /><trip id="passenger_759480_enh_93" depart="3098.10" from="183710979#0" to="795097767#0" type="veh_passenger" color="0,0,255" departLane="best" departSpeed="max" departPos="random" speedFactor="0.96" /><trip id="passenger_759480_enh_94" depart="3120.69" from="665787524" to="795097767#0" type="veh_passenger" color="255,165,0" departLane="best" departSpeed="max" departPos="random" speedFactor="0.97" /><trip id="passenger_759480_enh_95" depart="3149.24" from="665787524" to="795097767#0" type="veh_passenger" color="255,20,147" departLane="best" departSpeed="max" departPos="random" speedFactor="0.98" /><trip id="passenger_759480_enh_96" depart="3287.45" from="665787524" to="795097767#0" type="veh_passenger" color="139,69,19" departLane="best" departSpeed="max" departPos="random" speedFactor="0.95" /><trip id="passenger_759480_enh_97" depart="3306.49" from="130049554#0" to="-665515504" type="veh_passenger" color="255,255,255" departLane="best" departSpeed="max" departPos="random" speedFactor="1.14" /><trip id="passenger_759480_enh_98" depart="3437.31" from="183710979#0" to="795097767#0" type="veh_passenger" color="255,255,255" departLane="best" departSpeed="max" departPos="random" speedFactor="0.89" /><trip id="passenger_759480_enh_99" depart="3481.69" from="665787524" to="665787533" type="veh_passenger" color="128,128,128" departLane="best" departSpeed="max" departPos="random" speedFactor="0.88" /><trip id="passenger_759480_enh_100" depart="3537.08" from="130049554#0" to="665787533" type="veh_passenger" color="0,128,0" departLane="best" departSpeed="max" departPos="random" speedFactor="1.0" /><trip id="passenger_759480_enh_101" depart="3537.80" from="183710979#0" to="665787533" type="veh_passenger" color="0,0,255" departLane="best" departSpeed="max" departPos="random" speedFactor="1.05" /></routes>