<?xml version='1.0' encoding='utf-8'?>
<routes xmlns:xsi="http://www.w3.org/2001/XMLSchema-instance" xsi:noNamespaceSchemaLocation="http://sumo.dlr.de/xsd/routes_file.xsd"><vType id="bus_bus" vClass="bus" guiShape="bus" color="255,255,0" maxSpeed="27.78" length="12.0" />
    <trip id="bus_762216_0" depart="2872.81" from="183710979#0" to="665787533" departLane="best" type="bus_bus" departSpeed="max" /><trip id="bus_762216_1" depart="820.80" from="-130048902#1" to="-665787530" departLane="best" type="bus_bus" departSpeed="max" /><trip id="bus_762216_2" depart="1026.00" from="-130048902#1" to="-665787530" departLane="best" type="bus_bus" departSpeed="max" /><trip id="bus_762216_3" depart="2462.41" from="-130048902#1" to="-665787530" departLane="best" type="bus_bus" departSpeed="max" /><trip id="bus_762216_4" depart="0.00" from="183710979#0" to="665787533" departLane="best" type="bus_bus" departSpeed="max" /><trip id="bus_762216_5" depart="1641.61" from="-130048902#1" to="-665787530" departLane="best" type="bus_bus" departSpeed="max" /><trip id="bus_762216_6" depart="3078.01" from="-130048902#1" to="-665787530" departLane="best" type="bus_bus" departSpeed="max" /><trip id="bus_762216_7" depart="410.40" from="183710979#0" to="665787533" departLane="best" type="bus_bus" departSpeed="max" /><trip id="bus_762216_8" depart="1436.40" from="-130048902#1" to="-665787530" departLane="best" type="bus_bus" departSpeed="max" /><trip id="bus_762216_9" depart="615.60" from="183710979#0" to="665787533" departLane="best" type="bus_bus" departSpeed="max" /><trip id="bus_762216_10" depart="1846.81" from="-130048902#1" to="-665787530" departLane="best" type="bus_bus" departSpeed="max" /><trip id="bus_762216_11" depart="2257.21" from="-130048902#1" to="-665787530" departLane="best" type="bus_bus" departSpeed="max" /><trip id="bus_762216_12" depart="2667.61" from="-130048902#1" to="-665787530" departLane="best" type="bus_bus" departSpeed="max" /><trip id="bus_762216_13" depart="1231.20" from="-130048902#1" to="-665787530" departLane="best" type="bus_bus" departSpeed="max" /><trip id="bus_762216_enh_14" depart="2.45" from="130049554#0" to="130048903#0" type="bus_bus" color="255,255,0" departLane="best" departSpeed="max" departPos="random" speedFactor="1.02" /><trip id="bus_762216_enh_15" depart="3.85" from="-130048902#1" to="-665787530" type="bus_bus" color="255,255,0" departLane="best" departSpeed="max" departPos="random" speedFactor="0.91" /><trip id="bus_762216_enh_16" depart="8.46" from="665787524" to="-665787530" type="bus_bus" color="0,128,0" departLane="best" departSpeed="max" departPos="random" speedFactor="1.14" /><trip id="bus_762216_enh_17" depart="174.42" from="183710979#0" to="-665515504" type="bus_bus" color="128,128,128" departLane="best" departSpeed="max" departPos="random" speedFactor="0.97" /><trip id="bus_762216_enh_18" depart="239.69" from="-130048902#1" to="130048903#0" type="bus_bus" color="0,128,0" departLane="best" departSpeed="max" departPos="random" speedFactor="1.11" /><trip id="bus_762216_enh_19" depart="250.95" from="130049554#0" to="-665515504" type="bus_bus" color="255,255,255" departLane="best" departSpeed="max" departPos="random" speedFactor="0.98" /><trip id="bus_762216_enh_20" depart="333.43" from="130049554#0" to="-665787530" type="bus_bus" color="255,165,0" departLane="best" departSpeed="max" departPos="random" speedFactor="0.88" /><trip id="bus_762216_enh_21" depart="468.43" from="665787524" to="-665787530" type="bus_bus" color="128,128,128" departLane="best" departSpeed="max" departPos="random" speedFactor="0.92" /><trip id="bus_762216_enh_22" depart="512.14" from="183710979#0" to="795097767#0" type="bus_bus" color="255,165,0" departLane="best" departSpeed="max" departPos="random" speedFactor="1.11" /><trip id="bus_762216_enh_23" depart="524.01" from="-130048902#1" to="130048903#0" type="bus_bus" color="0,128,0" departLane="best" departSpeed="max" departPos="random" speedFactor="1.11" /><trip id="bus_762216_enh_24" depart="679.03" from="130049554#0" to="665787533" type="bus_bus" color="255,255,255" departLane="best" departSpeed="max" departPos="random" speedFactor="1.06" /><trip id="bus_762216_enh_25" depart="688.28" from="-130048902#1" to="795097767#0" type="bus_bus" color="255,255,0" departLane="best" departSpeed="max" departPos="random" speedFactor="1.01" /><trip id="bus_762216_enh_26" depart="775.19" from="130049554#0" to="130048903#0" type="bus_bus" color="255,165,0" departLane="best" departSpeed="max" departPos="random" speedFactor="1.04" /><trip id="bus_762216_enh_27" depart="843.61" from="-130048902#1" to="795097767#0" type="bus_bus" color="255,0,0" departLane="best" departSpeed="max" departPos="random" speedFactor="1.09" /><trip id="bus_762216_enh_28" depart="909.98" from="-130048902#1" to="795097767#0" type="bus_bus" color="0,128,0" departLane="best" departSpeed="max" departPos="random" speedFactor="1.03" /><trip id="bus_762216_enh_29" depart="1020.37" from="183710979#0" to="-665515504" type="bus_bus" color="255,255,0" departLane="best" departSpeed="max" departPos="random" speedFactor="1.0" /><trip id="bus_762216_enh_30" depart="1041.89" from="130049554#0" to="665787533" type="bus_bus" color="255,0,0" departLane="best" departSpeed="max" departPos="random" speedFactor="1.07" /><trip id="bus_762216_enh_31" depart="1150.37" from="665787524" to="665787533" type="bus_bus" color="255,165,0" departLane="best" departSpeed="max" departPos="random" speedFactor="0.91" /><trip id="bus_762216_enh_32" depart="1202.31" from="-130048902#1" to="129113596#0" type="bus_bus" color="255,0,0" departLane="best" departSpeed="max" departPos="random" speedFactor="0.93" /><trip id="bus_762216_enh_33" depart="1287.67" from="183710979#0" to="795097767#0" type="bus_bus" color="255,0,0" departLane="best" departSpeed="max" departPos="random" speedFactor="1.15" /><trip id="bus_762216_enh_34" depart="1370.75" from="183710979#0" to="665787533" type="bus_bus" color="0,128,0" departLane="best" departSpeed="max" departPos="random" speedFactor="0.92" /><trip id="bus_762216_enh_35" depart="1377.97" from="130049554#0" to="665787533" type="bus_bus" color="0,0,255" departLane="best" departSpeed="max" departPos="random" speedFactor="0.99" /><trip id="bus_762216_enh_36" depart="1530.37" from="130049554#0" to="665787533" type="bus_bus" color="255,0,0" departLane="best" departSpeed="max" departPos="random" speedFactor="0.96" /><trip id="bus_762216_enh_37" depart="1552.78" from="130049554#0" to="129113596#0" type="bus_bus" color="255,255,0" departLane="best" departSpeed="max" departPos="random" speedFactor="1.05" /><trip id="bus_762216_enh_38" depart="1619.90" from="130049554#0" to="-665787530" type="bus_bus" color="128,128,128" departLane="best" departSpeed="max" departPos="random" speedFactor="0.93" /><trip id="bus_762216_enh_39" depart="1706.37" from="183710979#0" to="-665515504" type="bus_bus" color="255,255,0" departLane="best" departSpeed="max" departPos="random" speedFactor="1.02" /><trip id="bus_762216_enh_40" depart="1801.33" from="130049554#0" to="129113596#0" type="bus_bus" color="255,255,0" departLane="best" departSpeed="max" departPos="random" speedFactor="0.9" /><trip id="bus_762216_enh_41" depart="1833.34" from="665787524" to="665787533" type="bus_bus" color="255,165,0" departLane="best" departSpeed="max" departPos="random" speedFactor="1.15" /><trip id="bus_762216_enh_42" depart="1883.15" from="183710979#0" to="-665515504" type="bus_bus" color="255,255,255" departLane="best" departSpeed="max" departPos="random" speedFactor="0.99" /><trip id="bus_762216_enh_43" depart="2041.76" from="130049554#0" to="129113596#0" type="bus_bus" color="255,165,0" departLane="best" departSpeed="max" departPos="random" speedFactor="0.86" /><trip id="bus_762216_enh_44" depart="2054.35" from="665787524" to="795097767#0" type="bus_bus" color="0,0,255" departLane="best" departSpeed="max" departPos="random" speedFactor="1.1" /><trip id="bus_762216_enh_45" depart="2060.86" from="130049554#0" to="-665787530" type="bus_bus" color="128,128,128" departLane="best" departSpeed="max" departPos="random" speedFactor="1.14" /><trip id="bus_762216_enh_46" depart="2198.33" from="130049554#0" to="129113596#0" type="bus_bus" color="255,165,0" departLane="best" departSpeed="max" departPos="random" speedFactor="0.92" /><trip id="bus_762216_enh_47" depart="2308.40" from="183710979#0" to="665787533" type="bus_bus" color="255,255,0" departLane="best" departSpeed="max" departPos="random" speedFactor="0.96" /><trip id="bus_762216_enh_48" depart="2312.23" from="130049554#0" to="665787533" type="bus_bus" color="128,128,128" departLane="best" departSpeed="max" departPos="random" speedFactor="0.89" /><trip id="bus_762216_enh_49" depart="2380.02" from="130049554#0" to="665787533" type="bus_bus" color="0,128,0" departLane="best" departSpeed="max" departPos="random" speedFactor="0.88" /><trip id="bus_762216_enh_50" depart="2550.57" from="-130048902#1" to="-665787530" type="bus_bus" color="128,128,128" departLane="best" departSpeed="max" departPos="random" speedFactor="0.87" /><trip id="bus_762216_enh_51" depart="2563.02" from="183710979#0" to="665787533" type="bus_bus" color="255,255,0" departLane="best" departSpeed="max" departPos="random" speedFactor="1.09" /><trip id="bus_762216_enh_52" depart="2578.18" from="183710979#0" to="665787533" type="bus_bus" color="0,0,255" departLane="best" departSpeed="max" departPos="random" speedFactor="0.99" /><trip id="bus_762216_enh_53" depart="2732.15" from="183710979#0" to="665787533" type="bus_bus" color="0,128,0" departLane="best" departSpeed="max" departPos="random" speedFactor="0.86" /><trip id="bus_762216_enh_54" depart="2756.93" from="183710979#0" to="665787533" type="bus_bus" color="0,0,255" departLane="best" departSpeed="max" departPos="random" speedFactor="0.91" /><trip id="bus_762216_enh_55" depart="2848.08" from="183710979#0" to="665787533" type="bus_bus" color="128,128,128" departLane="best" departSpeed="max" departPos="random" speedFactor="1.02" /><trip id="bus_762216_enh_56" depart="2878.89" from="183710979#0" to="665787533" type="bus_bus" color="255,255,0" departLane="best" departSpeed="max" departPos="random" speedFactor="1.12" /><trip id="bus_762216_enh_57" depart="2996.40" from="-130048902#1" to="-665787530" type="bus_bus" color="128,128,128" departLane="best" departSpeed="max" departPos="random" speedFactor="1.11" /><trip id="bus_762216_enh_58" depart="3050.42" from="-130048902#1" to="-665787530" type="bus_bus" color="255,0,0" departLane="best" departSpeed="max" departPos="random" speedFactor="1.09" /><trip id="bus_762216_enh_59" depart="3092.21" from="-130048902#1" to="-665787530" type="bus_bus" color="255,165,0" departLane="best" departSpeed="max" departPos="random" speedFactor="1.03" /><trip id="bus_762216_enh_60" depart="3216.94" from="-130048902#1" to="-665787530" type="bus_bus" color="255,255,255" departLane="best" departSpeed="max" departPos="random" speedFactor="1.09" /><trip id="bus_762216_enh_61" depart="3223.91" from="-130048902#1" to="-665787530" type="bus_bus" color="0,0,255" departLane="best" departSpeed="max" departPos="random" speedFactor="1.12" /><trip id="bus_762216_enh_62" depart="3359.10" from="183710979#0" to="665787533" type="bus_bus" color="255,165,0" departLane="best" departSpeed="max" departPos="random" speedFactor="1.14" /><trip id="bus_762216_enh_63" depart="3395.93" from="-130048902#1" to="-665787530" type="bus_bus" color="0,128,0" departLane="best" departSpeed="max" departPos="random" speedFactor="0.96" /><trip id="bus_762216_enh_64" depart="3463.68" from="-130048902#1" to="-665787530" type="bus_bus" color="255,255,0" departLane="best" departSpeed="max" departPos="random" speedFactor="1.06" /><trip id="bus_762216_enh_65" depart="3569.18" from="-130048902#1" to="-665787530" type="bus_bus" color="128,128,128" departLane="best" departSpeed="max" departPos="random" speedFactor="1.09" /></routes>