<?xml version='1.0' encoding='utf-8'?>
<routes xmlns:xsi="http://www.w3.org/2001/XMLSchema-instance" xsi:noNamespaceSchemaLocation="http://sumo.dlr.de/xsd/routes_file.xsd"><vType id="truck_truck" vClass="truck" guiShape="truck" color="255,255,255" maxSpeed="25.0" length="10.0" />
    <trip id="truck_764919_0" depart="1026.00" from="183710979#0" to="665787533" departLane="best" type="truck_truck" departSpeed="max" /><trip id="truck_764919_1" depart="307.80" from="-130048902#1" to="-665787530" departLane="best" type="truck_truck" departSpeed="max" /><trip id="truck_764919_2" depart="2359.81" from="183710979#0" to="665787533" departLane="best" type="truck_truck" departSpeed="max" /><trip id="truck_764919_3" depart="2872.81" from="-130048902#1" to="-665787530" departLane="best" type="truck_truck" departSpeed="max" /><trip id="truck_764919_4" depart="410.40" from="-130048902#1" to="-665787530" departLane="best" type="truck_truck" departSpeed="max" /><trip id="truck_764919_5" depart="2462.41" from="-130048902#1" to="-665787530" departLane="best" type="truck_truck" departSpeed="max" /><trip id="truck_764919_6" depart="2770.21" from="-130048902#1" to="-665787530" departLane="best" type="truck_truck" departSpeed="max" /><trip id="truck_764919_7" depart="3180.61" from="-130048902#1" to="-665787530" departLane="best" type="truck_truck" departSpeed="max" /><trip id="truck_764919_8" depart="0.00" from="-130048902#1" to="-665787530" departLane="best" type="truck_truck" departSpeed="max" /><trip id="truck_764919_9" depart="2975.41" from="-130048902#1" to="-665787530" departLane="best" type="truck_truck" departSpeed="max" /><trip id="truck_764919_10" depart="2667.61" from="-130048902#1" to="-665787530" departLane="best" type="truck_truck" departSpeed="max" /><trip id="truck_764919_11" depart="615.60" from="183710979#0" to="665787533" departLane="best" type="truck_truck" departSpeed="max" /><trip id="truck_764919_12" depart="923.40" from="183710979#0" to="665787533" departLane="best" type="truck_truck" departSpeed="max" /><trip id="truck_764919_13" depart="1128.60" from="-130048902#1" to="-665787530" departLane="best" type="truck_truck" departSpeed="max" /><trip id="truck_764919_14" depart="1641.61" from="183710979#0" to="665787533" departLane="best" type="truck_truck" departSpeed="max" /><trip id="truck_764919_15" depart="2257.21" from="183710979#0" to="665787533" departLane="best" type="truck_truck" departSpeed="max" /><trip id="truck_764919_16" depart="1333.80" from="183710979#0" to="665787533" departLane="best" type="truck_truck" departSpeed="max" /><trip id="truck_764919_17" depart="513.00" from="183710979#0" to="665787533" departLane="best" type="truck_truck" departSpeed="max" /><trip id="truck_764919_18" depart="3488.41" from="183710979#0" to="665787533" departLane="best" type="truck_truck" departSpeed="max" /><trip id="truck_764919_19" depart="2154.61" from="183710979#0" to="665787533" departLane="best" type="truck_truck" departSpeed="max" /><trip id="truck_764919_20" depart="718.20" from="183710979#0" to="665787533" departLane="best" type="truck_truck" departSpeed="max" /><trip id="truck_764919_21" depart="1846.81" from="-130048902#1" to="-665787530" departLane="best" type="truck_truck" departSpeed="max" /><trip id="truck_764919_22" depart="1436.40" from="-130048902#1" to="-665787530" departLane="best" type="truck_truck" departSpeed="max" /><trip id="truck_764919_23" depart="1231.20" from="183710979#0" to="665787533" departLane="best" type="truck_truck" departSpeed="max" /><trip id="truck_764919_24" depart="3283.21" from="-130048902#1" to="-665787530" departLane="best" type="truck_truck" departSpeed="max" /><trip id="truck_764919_25" depart="1949.41" from="-130048902#1" to="-665787530" departLane="best" type="truck_truck" departSpeed="max" /><trip id="truck_764919_26" depart="2565.01" from="183710979#0" to="665787533" departLane="best" type="truck_truck" departSpeed="max" /><trip id="truck_764919_27" depart="3591.01" from="183710979#0" to="665787533" departLane="best" type="truck_truck" departSpeed="max" /><trip id="truck_764919_enh_28" depart="3.85" from="130049554#0" to="-665515504" type="truck_truck" color="255,255,255" departLane="best" departSpeed="max" departPos="random" speedFactor="0.86" /><trip id="truck_764919_enh_29" depart="8.46" from="183710979#0" to="129113596#0" type="truck_truck" color="0,128,0" departLane="best" departSpeed="max" departPos="random" speedFactor="0.85" /><trip id="truck_764919_enh_30" depart="12.06" from="665787524" to="-665787530" type="truck_truck" color="0,0,0" departLane="best" departSpeed="max" departPos="random" speedFactor="1.0" /><trip id="truck_764919_enh_31" depart="179.42" from="-130048902#1" to="130048903#0" type="truck_truck" color="128,128,128" departLane="best" departSpeed="max" departPos="random" speedFactor="1.07" /><trip id="truck_764919_enh_32" depart="246.47" from="-130048902#1" to="-665515504" type="truck_truck" color="255,255,255" departLane="best" departSpeed="max" departPos="random" speedFactor="1.02" /><trip id="truck_764919_enh_33" depart="258.55" from="183710979#0" to="129113596#0" type="truck_truck" color="0,0,255" departLane="best" departSpeed="max" departPos="random" speedFactor="1.14" /><trip id="truck_764919_enh_34" depart="335.92" from="-130048902#1" to="129113596#0" type="truck_truck" color="0,0,0" departLane="best" departSpeed="max" departPos="random" speedFactor="0.98" /><trip id="truck_764919_enh_35" depart="460.39" from="-130048902#1" to="-665515504" type="truck_truck" color="0,128,0" departLane="best" departSpeed="max" departPos="random" speedFactor="0.88" /><trip id="truck_764919_enh_36" depart="519.51" from="665787524" to="795097767#0" type="truck_truck" color="255,255,0" departLane="best" departSpeed="max" departPos="random" speedFactor="0.92" /><trip id="truck_764919_enh_37" depart="531.18" from="183710979#0" to="130048903#0" type="truck_truck" color="0,128,0" departLane="best" departSpeed="max" departPos="random" speedFactor="1.11" /><trip id="truck_764919_enh_38" depart="700.98" from="665787524" to="-665787530" type="truck_truck" color="0,0,255" departLane="best" departSpeed="max" departPos="random" speedFactor="1.11" /><trip id="truck_764919_enh_39" depart="710.70" from="-130048902#1" to="-665515504" type="truck_truck" color="0,0,0" departLane="best" departSpeed="max" departPos="random" speedFactor="1.06" /><trip id="truck_764919_enh_40" depart="798.00" from="183710979#0" to="-665515504" type="truck_truck" color="255,255,255" departLane="best" departSpeed="max" departPos="random" speedFactor="1.01" /><trip id="truck_764919_enh_41" depart="877.35" from="-130048902#1" to="-665515504" type="truck_truck" color="0,128,0" departLane="best" departSpeed="max" departPos="random" speedFactor="1.04" /><trip id="truck_764919_enh_42" depart="941.46" from="-130048902#1" to="-665787530" type="truck_truck" color="255,0,0" departLane="best" departSpeed="max" departPos="random" speedFactor="1.09" /><trip id="truck_764919_enh_43" depart="1037.82" from="183710979#0" to="665787533" type="truck_truck" color="0,0,255" departLane="best" departSpeed="max" departPos="random" speedFactor="1.03" /><trip id="truck_764919_enh_44" depart="1072.31" from="183710979#0" to="665787533" type="truck_truck" color="255,255,255" departLane="best" departSpeed="max" departPos="random" speedFactor="1.0" /><trip id="truck_764919_enh_45" depart="1176.81" from="-130048902#1" to="-665787530" type="truck_truck" color="255,0,0" departLane="best" departSpeed="max" departPos="random" speedFactor="1.07" /><trip id="truck_764919_enh_46" depart="1225.19" from="-130048902#1" to="-665787530" type="truck_truck" color="0,128,0" departLane="best" departSpeed="max" departPos="random" speedFactor="0.91" /><trip id="truck_764919_enh_47" depart="1341.08" from="-130048902#1" to="-665787530" type="truck_truck" color="255,0,0" departLane="best" departSpeed="max" departPos="random" speedFactor="0.93" /><trip id="truck_764919_enh_48" depart="1408.70" from="183710979#0" to="665787533" type="truck_truck" color="255,0,0" departLane="best" departSpeed="max" departPos="random" speedFactor="1.15" /><trip id="truck_764919_enh_49" depart="1431.15" from="-130048902#1" to="-665787530" type="truck_truck" color="0,0,255" departLane="best" departSpeed="max" departPos="random" speedFactor="0.92" /><trip id="truck_764919_enh_50" depart="1578.37" from="-130048902#1" to="-665787530" type="truck_truck" color="128,128,128" departLane="best" departSpeed="max" departPos="random" speedFactor="0.99" /><trip id="truck_764919_enh_51" depart="1598.40" from="183710979#0" to="665787533" type="truck_truck" color="255,0,0" departLane="best" departSpeed="max" departPos="random" speedFactor="0.96" /><trip id="truck_764919_enh_52" depart="1650.38" from="-130048902#1" to="-665787530" type="truck_truck" color="255,255,255" departLane="best" departSpeed="max" departPos="random" speedFactor="1.05" /><trip id="truck_764919_enh_53" depart="1748.51" from="183710979#0" to="665787533" type="truck_truck" color="255,255,0" departLane="best" departSpeed="max" departPos="random" speedFactor="0.93" /><trip id="truck_764919_enh_54" depart="1862.51" from="183710979#0" to="665787533" type="truck_truck" color="255,255,255" departLane="best" departSpeed="max" departPos="random" speedFactor="1.02" /><trip id="truck_764919_enh_55" depart="1894.03" from="-130048902#1" to="-665787530" type="truck_truck" color="255,255,255" departLane="best" departSpeed="max" departPos="random" speedFactor="0.9" /><trip id="truck_764919_enh_56" depart="1936.08" from="-130048902#1" to="-665787530" type="truck_truck" color="0,128,0" departLane="best" departSpeed="max" departPos="random" speedFactor="1.15" /><trip id="truck_764919_enh_57" depart="2112.84" from="183710979#0" to="665787533" type="truck_truck" color="0,0,0" departLane="best" departSpeed="max" departPos="random" speedFactor="0.99" /><trip id="truck_764919_enh_58" depart="2119.03" from="183710979#0" to="665787533" type="truck_truck" color="0,128,0" departLane="best" departSpeed="max" departPos="random" speedFactor="0.86" /><trip id="truck_764919_enh_59" depart="2130.17" from="183710979#0" to="665787533" type="truck_truck" color="128,128,128" departLane="best" departSpeed="max" departPos="random" speedFactor="1.1" /><trip id="truck_764919_enh_60" depart="2281.71" from="-130048902#1" to="-665787530" type="truck_truck" color="255,255,0" departLane="best" departSpeed="max" departPos="random" speedFactor="1.14" /><trip id="truck_764919_enh_61" depart="2361.25" from="-130048902#1" to="-665787530" type="truck_truck" color="0,128,0" departLane="best" departSpeed="max" departPos="random" speedFactor="0.92" /><trip id="truck_764919_enh_62" depart="2381.27" from="183710979#0" to="665787533" type="truck_truck" color="255,255,255" departLane="best" departSpeed="max" departPos="random" speedFactor="0.96" /><trip id="truck_764919_enh_63" depart="2454.07" from="183710979#0" to="665787533" type="truck_truck" color="255,255,0" departLane="best" departSpeed="max" departPos="random" speedFactor="0.89" /><trip id="truck_764919_enh_64" depart="2604.16" from="183710979#0" to="665787533" type="truck_truck" color="0,0,255" departLane="best" departSpeed="max" departPos="random" speedFactor="0.88" /><trip id="truck_764919_enh_65" depart="2613.57" from="-130048902#1" to="-665787530" type="truck_truck" color="255,255,0" departLane="best" departSpeed="max" departPos="random" speedFactor="0.87" /><trip id="truck_764919_enh_66" depart="2654.21" from="183710979#0" to="665787533" type="truck_truck" color="255,255,255" departLane="best" departSpeed="max" departPos="random" speedFactor="1.09" /><trip id="truck_764919_enh_67" depart="2806.67" from="183710979#0" to="665787533" type="truck_truck" color="128,128,128" departLane="best" departSpeed="max" departPos="random" speedFactor="0.99" /><trip id="truck_764919_enh_68" depart="2836.93" from="-130048902#1" to="-665787530" type="truck_truck" color="0,0,255" departLane="best" departSpeed="max" departPos="random" speedFactor="0.86" /><trip id="truck_764919_enh_69" depart="2926.05" from="-130048902#1" to="-665787530" type="truck_truck" color="128,128,128" departLane="best" departSpeed="max" departPos="random" speedFactor="0.91" /><trip id="truck_764919_enh_70" depart="2965.46" from="183710979#0" to="665787533" type="truck_truck" color="255,255,0" departLane="best" departSpeed="max" departPos="random" speedFactor="1.02" /><trip id="truck_764919_enh_71" depart="3080.17" from="183710979#0" to="665787533" type="truck_truck" color="255,255,255" departLane="best" departSpeed="max" departPos="random" speedFactor="1.12" /><trip id="truck_764919_enh_72" depart="3144.95" from="-130048902#1" to="-665787530" type="truck_truck" color="255,255,0" departLane="best" departSpeed="max" departPos="random" speedFactor="1.11" /><trip id="truck_764919_enh_73" depart="3197.82" from="183710979#0" to="665787533" type="truck_truck" color="255,0,0" departLane="best" departSpeed="max" departPos="random" speedFactor="1.09" /><trip id="truck_764919_enh_74" depart="3318.76" from="-130048902#1" to="-665787530" type="truck_truck" color="0,128,0" departLane="best" departSpeed="max" departPos="random" speedFactor="1.03" /><trip id="truck_764919_enh_75" depart="3330.28" from="183710979#0" to="665787533" type="truck_truck" color="0,0,0" departLane="best" departSpeed="max" departPos="random" speedFactor="1.09" /><trip id="truck_764919_enh_76" depart="3457.94" from="183710979#0" to="665787533" type="truck_truck" color="128,128,128" departLane="best" departSpeed="max" departPos="random" speedFactor="1.12" /><trip id="truck_764919_enh_77" depart="3499.14" from="-130048902#1" to="-665787530" type="truck_truck" color="0,128,0" departLane="best" departSpeed="max" departPos="random" speedFactor="1.14" /><trip id="truck_764919_enh_78" depart="3574.60" from="-130048902#1" to="-665787530" type="truck_truck" color="0,0,255" departLane="best" departSpeed="max" departPos="random" speedFactor="0.96" /></routes>