<?xml version="1.0" encoding="UTF-8"?>

<!-- generated on 2025-09-26 19:56:08 by Eclipse SUMO duarouter Version 1.24.0
<duarouterConfiguration xmlns:xsi="http://www.w3.org/2001/XMLSchema-instance" xsi:noNamespaceSchemaLocation="http://sumo.dlr.de/xsd/duarouterConfiguration.xsd">

    <input>
        <net-file value="C:/Users/kgaqu/OneDrive/Documents/4th Year/Capstone 2/v10/backend/networks/bayanan_area/bayanan_area.net.xml"/>
        <route-files value="C:/Users/kgaqu/AppData/Local/Temp/tmprordnjrn.trips.xml"/>
    </input>

    <output>
        <output-file value="C:/Users/kgaqu/OneDrive/Documents/4th Year/Capstone 2/v10/backend/networks/bayanan_area/routes/osm.enhanced.rou.xml"/>
    </output>

    <processing>
        <max-alternatives value="3"/>
        <remove-loops value="true"/>
        <weights.random-factor value="1.2"/>
        <route-choice-method value="gawron"/>
    </processing>

    <report>
        <ignore-errors value="true"/>
    </report>

</duarouterConfiguration>
-->

<routes xmlns:xsi="http://www.w3.org/2001/XMLSchema-instance" xsi:noNamespaceSchemaLocation="http://sumo.dlr.de/xsd/routes_file.xsd">
    <vType id="veh_passenger" maxSpeed="55.56" vClass="passenger" guiShape="passenger" color="grey" accel="2.6" decel="4.5"/>
    <vehicle id="vehicle_45" type="veh_passenger" depart="1.20" departLane="best" departPos="random" departSpeed="max" color="255,20,147" speedFactor="0.8900">
        <route edges="665787524 -665787530"/>
    </vehicle>
    <vType id="motorcycle_motorcycle" length="2.50" maxSpeed="50.00" vClass="motorcycle" guiShape="motorcycle" color="red"/>
    <vehicle id="vehicle_263" type="motorcycle_motorcycle" depart="1.37" departLane="best" departPos="random" departSpeed="max" color="black" speedFactor="0.8700">
        <route edges="130049554#0 130048903#0"/>
    </vehicle>
    <vType id="bus_bus" length="12.00" maxSpeed="27.78" vClass="bus" guiShape="bus" color="yellow"/>
    <vehicle id="vehicle_116" type="bus_bus" depart="2.45" departLane="best" departPos="random" departSpeed="max" color="yellow" speedFactor="1.0200">
        <route edges="130049554#0 130048903#0"/>
    </vehicle>
    <vehicle id="vehicle_117" type="bus_bus" depart="3.85" departLane="best" departPos="random" departSpeed="max" color="yellow" speedFactor="0.9100">
        <route edges="-130048902#1 -665787530"/>
    </vehicle>
    <vType id="truck_truck" length="10.00" maxSpeed="25.00" vClass="truck" guiShape="truck" color="white"/>
    <vehicle id="vehicle_196" type="truck_truck" depart="3.85" departLane="best" departPos="random" departSpeed="max" color="white" speedFactor="0.8600">
        <route edges="130049554#0 130048903#0 -665515504"/>
    </vehicle>
    <vehicle id="vehicle_264" type="motorcycle_motorcycle" depart="8.45" departLane="best" departPos="random" departSpeed="max" color="255,165,0" speedFactor="0.9700">
        <route edges="130048903#0 129113596#0"/>
    </vehicle>
    <vehicle id="vehicle_118" type="bus_bus" depart="8.46" departLane="best" departPos="random" departSpeed="max" color="0,128,0" speedFactor="1.1400">
        <route edges="665787524 -665787530"/>
    </vehicle>
    <vehicle id="vehicle_197" type="truck_truck" depart="8.46" departLane="best" departPos="random" departSpeed="max" color="0,128,0" speedFactor="0.8500">
        <route edges="183710979#0 130048903#0 129113596#0"/>
    </vehicle>
    <vehicle id="vehicle_6" type="veh_passenger" depart="9.96" departLane="best" departSpeed="max">
        <route edges="130049554#0 130048903#0"/>
    </vehicle>
    <vehicle id="vehicle_198" type="truck_truck" depart="12.06" departLane="best" departPos="random" departSpeed="max" color="black" speedFactor="1.0000">
        <route edges="665787524 -665787530"/>
    </vehicle>
    <vehicle id="vehicle_1" type="veh_passenger" depart="136.80" departLane="best" departSpeed="max">
        <route edges="665787524 795097767#0"/>
    </vehicle>
    <vehicle id="vehicle_119" type="bus_bus" depart="174.42" departLane="best" departPos="random" departSpeed="max" color="grey" speedFactor="0.9700">
        <route edges="183710979#0 130048903#0 -665515504"/>
    </vehicle>
    <vehicle id="vehicle_265" type="motorcycle_motorcycle" depart="178.67" departLane="best" departPos="random" departSpeed="max" color="white" speedFactor="0.9000">
        <route edges="130049554#0 -665787530"/>
    </vehicle>
    <vehicle id="vehicle_199" type="truck_truck" depart="179.42" departLane="best" departPos="random" departSpeed="max" color="grey" speedFactor="1.0700">
        <route edges="-130048902#1 130048903#0"/>
    </vehicle>
    <vehicle id="vehicle_46" type="veh_passenger" depart="182.00" departLane="best" departPos="random" departSpeed="max" color="192,192,192" speedFactor="0.9000">
        <route edges="130049554#0 665787533"/>
    </vehicle>
    <vehicle id="vehicle_33" type="veh_passenger" depart="205.20" departLane="best" departSpeed="max">
        <route edges="130049554#0 130048903#0 129113596#0"/>
    </vehicle>
    <vehicle id="vehicle_252" type="motorcycle_motorcycle" depart="205.20" departLane="best" departSpeed="max">
        <route edges="-130048902#1 130048903#0 129113596#0"/>
    </vehicle>
    <vehicle id="vehicle_266" type="motorcycle_motorcycle" depart="215.62" departLane="best" departPos="random" departSpeed="max" color="yellow" speedFactor="0.8600">
        <route edges="130049554#0 665787533"/>
    </vehicle>
    <vehicle id="vehicle_47" type="veh_passenger" depart="236.47" departLane="best" departPos="random" departSpeed="max" color="128,0,128" speedFactor="0.9700">
        <route edges="-130048902#1 795097767#0"/>
    </vehicle>
    <vehicle id="vehicle_120" type="bus_bus" depart="239.69" departLane="best" departPos="random" departSpeed="max" color="0,128,0" speedFactor="1.1100">
        <route edges="-130048902#1 130048903#0"/>
    </vehicle>
    <vehicle id="vehicle_200" type="truck_truck" depart="246.47" departLane="best" departPos="random" departSpeed="max" color="white" speedFactor="1.0200">
        <route edges="-130048902#1 130048903#0 -665515504"/>
    </vehicle>
    <vehicle id="vehicle_121" type="bus_bus" depart="250.95" departLane="best" departPos="random" departSpeed="max" color="white" speedFactor="0.9800">
        <route edges="130049554#0 130048903#0 -665515504"/>
    </vehicle>
    <vehicle id="vehicle_267" type="motorcycle_motorcycle" depart="252.13" departLane="best" departPos="random" departSpeed="max" color="128,0,128" speedFactor="1.0100">
        <route edges="130049554#0 -665787530"/>
    </vehicle>
    <vehicle id="vehicle_48" type="veh_passenger" depart="257.20" departLane="best" departPos="random" departSpeed="max" color="cyan" speedFactor="1.0400">
        <route edges="130049554#0 -665787530"/>
    </vehicle>
    <vehicle id="vehicle_201" type="truck_truck" depart="258.55" departLane="best" departPos="random" departSpeed="max" color="blue" speedFactor="1.1400">
        <route edges="183710979#0 130048903#0 129113596#0"/>
    </vehicle>
    <vehicle id="vehicle_4" type="veh_passenger" depart="273.60" departLane="best" departSpeed="max">
        <route edges="-130048902#1 795097767#0"/>
    </vehicle>
    <vehicle id="vehicle_169" type="truck_truck" depart="307.80" departLane="best" departSpeed="max">
        <route edges="-130048902#1 -665787530"/>
    </vehicle>
    <vehicle id="vehicle_122" type="bus_bus" depart="333.43" departLane="best" departPos="random" departSpeed="max" color="255,165,0" speedFactor="0.8800">
        <route edges="130049554#0 -665787530"/>
    </vehicle>
    <vehicle id="vehicle_202" type="truck_truck" depart="335.92" departLane="best" departPos="random" departSpeed="max" color="black" speedFactor="0.9800">
        <route edges="-130048902#1 130048903#0 129113596#0"/>
    </vehicle>
    <vehicle id="vehicle_268" type="motorcycle_motorcycle" depart="337.32" departLane="best" departPos="random" departSpeed="max" color="black" speedFactor="0.9900">
        <route edges="-130048902#1 130048903#0 129113596#0"/>
    </vehicle>
    <vehicle id="vehicle_0" type="veh_passenger" depart="342.00" departLane="best" departSpeed="max">
        <route edges="-130048902#1 130048903#0 -665515504"/>
    </vehicle>
    <vehicle id="vehicle_49" type="veh_passenger" depart="343.99" departLane="best" departPos="random" departSpeed="max" color="red" speedFactor="0.9000">
        <route edges="183710979#0 130048903#0 -665515504"/>
    </vehicle>
    <vehicle id="vehicle_26" type="veh_passenger" depart="410.40" departLane="best" departSpeed="max">
        <route edges="665787524 -665787530"/>
    </vehicle>
    <vehicle id="vehicle_109" type="bus_bus" depart="410.40" departLane="best" departSpeed="max">
        <route edges="183710979#0 665787533"/>
    </vehicle>
    <vehicle id="vehicle_172" type="truck_truck" depart="410.40" departLane="best" departSpeed="max">
        <route edges="-130048902#1 -665787530"/>
    </vehicle>
    <vehicle id="vehicle_259" type="motorcycle_motorcycle" depart="410.40" departLane="best" departSpeed="max">
        <route edges="183710979#0 665787533"/>
    </vehicle>
    <vehicle id="vehicle_42" type="veh_passenger" depart="426.40" departLane="best" departPos="random" departSpeed="max" color="cyan" speedFactor="1.1200">
        <route edges="130048903#0 129113596#0"/>
    </vehicle>
    <vehicle id="vehicle_269" type="motorcycle_motorcycle" depart="427.67" departLane="best" departPos="random" departSpeed="max" color="128,0,128" speedFactor="0.9600">
        <route edges="-130048902#1 130048903#0"/>
    </vehicle>
    <vehicle id="vehicle_50" type="veh_passenger" depart="452.41" departLane="best" departPos="random" departSpeed="max" color="blue" speedFactor="0.8600">
        <route edges="130048903#0 129113596#0"/>
    </vehicle>
    <vehicle id="vehicle_51" type="veh_passenger" depart="455.23" departLane="best" departPos="random" departSpeed="max" color="128,0,128" speedFactor="1.0100">
        <route edges="665787524 130048903#0"/>
    </vehicle>
    <vehicle id="vehicle_203" type="truck_truck" depart="460.39" departLane="best" departPos="random" departSpeed="max" color="0,128,0" speedFactor="0.8800">
        <route edges="-130048902#1 130048903#0 -665515504"/>
    </vehicle>
    <vehicle id="vehicle_270" type="motorcycle_motorcycle" depart="464.74" departLane="best" departPos="random" departSpeed="max" color="blue" speedFactor="1.0500">
        <route edges="-130048902#1 130048903#0 129113596#0"/>
    </vehicle>
    <vehicle id="vehicle_123" type="bus_bus" depart="468.43" departLane="best" departPos="random" departSpeed="max" color="grey" speedFactor="0.9200">
        <route edges="665787524 -665787530"/>
    </vehicle>
    <vehicle id="vehicle_24" type="veh_passenger" depart="478.80" departLane="best" departSpeed="max">
        <route edges="183710979#0 795097767#0"/>
    </vehicle>
    <vehicle id="vehicle_271" type="motorcycle_motorcycle" depart="500.40" departLane="best" departPos="random" departSpeed="max" color="yellow" speedFactor="0.8900">
        <route edges="665787524 795097767#0"/>
    </vehicle>
    <vehicle id="vehicle_272" type="motorcycle_motorcycle" depart="504.60" departLane="best" departPos="random" departSpeed="max" color="blue" speedFactor="0.9000">
        <route edges="183710979#0 665787533"/>
    </vehicle>
    <vehicle id="vehicle_52" type="veh_passenger" depart="510.40" departLane="best" departPos="random" departSpeed="max" color="50,205,50" speedFactor="0.8900">
        <route edges="-130048902#1 130048903#0"/>
    </vehicle>
    <vehicle id="vehicle_124" type="bus_bus" depart="512.14" departLane="best" departPos="random" departSpeed="max" color="255,165,0" speedFactor="1.1100">
        <route edges="183710979#0 795097767#0"/>
    </vehicle>
    <vehicle id="vehicle_185" type="truck_truck" depart="513.00" departLane="best" departSpeed="max">
        <route edges="183710979#0 665787533"/>
    </vehicle>
    <vehicle id="vehicle_53" type="veh_passenger" depart="514.74" departLane="best" departPos="random" departSpeed="max" color="50,205,50" speedFactor="1.0000">
        <route edges="665787524 665787533"/>
    </vehicle>
    <vehicle id="vehicle_204" type="truck_truck" depart="519.51" departLane="best" departPos="random" departSpeed="max" color="yellow" speedFactor="0.9200">
        <route edges="665787524 795097767#0"/>
    </vehicle>
    <vehicle id="vehicle_125" type="bus_bus" depart="524.01" departLane="best" departPos="random" departSpeed="max" color="0,128,0" speedFactor="1.1100">
        <route edges="-130048902#1 130048903#0"/>
    </vehicle>
    <vehicle id="vehicle_205" type="truck_truck" depart="531.18" departLane="best" departPos="random" departSpeed="max" color="0,128,0" speedFactor="1.1100">
        <route edges="183710979#0 130048903#0"/>
    </vehicle>
    <vehicle id="vehicle_111" type="bus_bus" depart="615.60" departLane="best" departSpeed="max">
        <route edges="183710979#0 665787533"/>
    </vehicle>
    <vehicle id="vehicle_179" type="truck_truck" depart="615.60" departLane="best" departSpeed="max">
        <route edges="183710979#0 665787533"/>
    </vehicle>
    <vehicle id="vehicle_126" type="bus_bus" depart="679.03" departLane="best" departPos="random" departSpeed="max" color="white" speedFactor="1.0600">
        <route edges="130049554#0 665787533"/>
    </vehicle>
    <vehicle id="vehicle_35" type="veh_passenger" depart="684.00" departLane="best" departSpeed="max">
        <route edges="130049554#0 130048903#0 -665515504"/>
    </vehicle>
    <vehicle id="vehicle_273" type="motorcycle_motorcycle" depart="686.00" departLane="best" departPos="random" departSpeed="max" color="255,165,0" speedFactor="0.9500">
        <route edges="130049554#0 130048903#0"/>
    </vehicle>
    <vehicle id="vehicle_127" type="bus_bus" depart="688.28" departLane="best" departPos="random" departSpeed="max" color="yellow" speedFactor="1.0100">
        <route edges="-130048902#1 795097767#0"/>
    </vehicle>
    <vehicle id="vehicle_274" type="motorcycle_motorcycle" depart="693.71" departLane="best" departPos="random" departSpeed="max" color="black" speedFactor="1.1100">
        <route edges="130049554#0 130048903#0 -665515504"/>
    </vehicle>
    <vehicle id="vehicle_206" type="truck_truck" depart="700.98" departLane="best" departPos="random" departSpeed="max" color="blue" speedFactor="1.1100">
        <route edges="665787524 -665787530"/>
    </vehicle>
    <vehicle id="vehicle_54" type="veh_passenger" depart="707.05" departLane="best" departPos="random" departSpeed="max" color="255,165,0" speedFactor="0.8700">
        <route edges="183710979#0 130048903#0"/>
    </vehicle>
    <vehicle id="vehicle_55" type="veh_passenger" depart="708.88" departLane="best" departPos="random" departSpeed="max" color="128,0,128" speedFactor="1.0400">
        <route edges="-130048902#1 -665787530"/>
    </vehicle>
    <vehicle id="vehicle_207" type="truck_truck" depart="710.70" departLane="best" departPos="random" departSpeed="max" color="black" speedFactor="1.0600">
        <route edges="-130048902#1 130048903#0 -665515504"/>
    </vehicle>
    <vehicle id="vehicle_188" type="truck_truck" depart="718.20" departLane="best" departSpeed="max">
        <route edges="183710979#0 665787533"/>
    </vehicle>
    <vehicle id="vehicle_31" type="veh_passenger" depart="752.40" departLane="best" departSpeed="max">
        <route edges="665787524 795097767#0"/>
    </vehicle>
    <vehicle id="vehicle_275" type="motorcycle_motorcycle" depart="761.58" departLane="best" departPos="random" departSpeed="max" color="yellow" speedFactor="0.9000">
        <route edges="130048903#0 -665515504"/>
    </vehicle>
    <vehicle id="vehicle_128" type="bus_bus" depart="775.19" departLane="best" departPos="random" departSpeed="max" color="255,165,0" speedFactor="1.0400">
        <route edges="130049554#0 130048903#0"/>
    </vehicle>
    <vehicle id="vehicle_56" type="veh_passenger" depart="776.79" departLane="best" departPos="random" departSpeed="max" color="grey" speedFactor="0.8700">
        <route edges="130049554#0 130048903#0 -665515504"/>
    </vehicle>
    <vehicle id="vehicle_43" type="veh_passenger" depart="777.26" departLane="best" departPos="random" departSpeed="max" color="255,165,0" speedFactor="1.0900">
        <route edges="130049554#0 130048903#0"/>
    </vehicle>
    <vehicle id="vehicle_208" type="truck_truck" depart="798.00" departLane="best" departPos="random" departSpeed="max" color="white" speedFactor="1.0100">
        <route edges="183710979#0 130048903#0 -665515504"/>
    </vehicle>
    <vehicle id="vehicle_27" type="veh_passenger" depart="820.80" departLane="best" departSpeed="max">
        <route edges="183710979#0 130048903#0 129113596#0"/>
    </vehicle>
    <vehicle id="vehicle_103" type="bus_bus" depart="820.80" departLane="best" departSpeed="max">
        <route edges="-130048902#1 -665787530"/>
    </vehicle>
    <vehicle id="vehicle_250" type="motorcycle_motorcycle" depart="820.80" departLane="best" departSpeed="max">
        <route edges="-130048902#1 130048903#0 129113596#0"/>
    </vehicle>
    <vehicle id="vehicle_129" type="bus_bus" depart="843.61" departLane="best" departPos="random" departSpeed="max" color="red" speedFactor="1.0900">
        <route edges="-130048902#1 795097767#0"/>
    </vehicle>
    <vehicle id="vehicle_276" type="motorcycle_motorcycle" depart="863.91" departLane="best" departPos="random" departSpeed="max" color="red" speedFactor="1.1100">
        <route edges="130048903#0 -665515504"/>
    </vehicle>
    <vehicle id="vehicle_209" type="truck_truck" depart="877.35" departLane="best" departPos="random" departSpeed="max" color="0,128,0" speedFactor="1.0400">
        <route edges="-130048902#1 130048903#0 -665515504"/>
    </vehicle>
    <vehicle id="vehicle_277" type="motorcycle_motorcycle" depart="878.15" departLane="best" departPos="random" departSpeed="max" color="red" speedFactor="0.9600">
        <route edges="183710979#0 795097767#0"/>
    </vehicle>
    <vehicle id="vehicle_57" type="veh_passenger" depart="880.17" departLane="best" departPos="random" departSpeed="max" color="139,69,19" speedFactor="0.8800">
        <route edges="183710979#0 665787533"/>
    </vehicle>
    <vehicle id="vehicle_58" type="veh_passenger" depart="880.58" departLane="best" departPos="random" departSpeed="max" color="blue" speedFactor="1.0800">
        <route edges="665787524 795097767#0"/>
    </vehicle>
    <vehicle id="vehicle_19" type="veh_passenger" depart="889.20" departLane="best" departSpeed="max">
        <route edges="665787524 665787533"/>
    </vehicle>
    <vehicle id="vehicle_130" type="bus_bus" depart="909.98" departLane="best" departPos="random" departSpeed="max" color="0,128,0" speedFactor="1.0300">
        <route edges="-130048902#1 795097767#0"/>
    </vehicle>
    <vehicle id="vehicle_278" type="motorcycle_motorcycle" depart="923.11" departLane="best" departPos="random" departSpeed="max" color="black" speedFactor="0.9100">
        <route edges="-130048902#1 130048903#0 -665515504"/>
    </vehicle>
    <vehicle id="vehicle_180" type="truck_truck" depart="923.40" departLane="best" departSpeed="max">
        <route edges="183710979#0 665787533"/>
    </vehicle>
    <vehicle id="vehicle_59" type="veh_passenger" depart="934.66" departLane="best" departPos="random" departSpeed="max" color="0,128,0" speedFactor="0.9500">
        <route edges="130048903#0 129113596#0"/>
    </vehicle>
    <vehicle id="vehicle_210" type="truck_truck" depart="941.46" departLane="best" departPos="random" departSpeed="max" color="red" speedFactor="1.0900">
        <route edges="-130048902#1 -665787530"/>
    </vehicle>
    <vehicle id="vehicle_14" type="veh_passenger" depart="957.60" departLane="best" departSpeed="max">
        <route edges="183710979#0 130048903#0"/>
    </vehicle>
    <vehicle id="vehicle_131" type="bus_bus" depart="1020.37" departLane="best" departPos="random" departSpeed="max" color="yellow" speedFactor="1.0000">
        <route edges="183710979#0 130048903#0 -665515504"/>
    </vehicle>
    <vehicle id="vehicle_20" type="veh_passenger" depart="1026.00" departLane="best" departSpeed="max">
        <route edges="665787524 665787533"/>
    </vehicle>
    <vehicle id="vehicle_104" type="bus_bus" depart="1026.00" departLane="best" departSpeed="max">
        <route edges="-130048902#1 -665787530"/>
    </vehicle>
    <vehicle id="vehicle_168" type="truck_truck" depart="1026.00" departLane="best" departSpeed="max">
        <route edges="183710979#0 665787533"/>
    </vehicle>
    <vehicle id="vehicle_247" type="motorcycle_motorcycle" depart="1026.00" departLane="best" departSpeed="max">
        <route edges="130049554#0 665787533"/>
    </vehicle>
    <vehicle id="vehicle_279" type="motorcycle_motorcycle" depart="1026.28" departLane="best" departPos="random" departSpeed="max" color="blue" speedFactor="0.8800">
        <route edges="130049554#0 130048903#0 -665515504"/>
    </vehicle>
    <vehicle id="vehicle_280" type="motorcycle_motorcycle" depart="1027.23" departLane="best" departPos="random" departSpeed="max" color="red" speedFactor="0.9800">
        <route edges="130049554#0 130048903#0"/>
    </vehicle>
    <vehicle id="vehicle_211" type="truck_truck" depart="1037.82" departLane="best" departPos="random" departSpeed="max" color="blue" speedFactor="1.0300">
        <route edges="183710979#0 665787533"/>
    </vehicle>
    <vehicle id="vehicle_132" type="bus_bus" depart="1041.89" departLane="best" departPos="random" departSpeed="max" color="red" speedFactor="1.0700">
        <route edges="130049554#0 665787533"/>
    </vehicle>
    <vehicle id="vehicle_60" type="veh_passenger" depart="1046.56" departLane="best" departPos="random" departSpeed="max" color="black" speedFactor="1.1100">
        <route edges="183710979#0 130048903#0 -665515504"/>
    </vehicle>
    <vehicle id="vehicle_61" type="veh_passenger" depart="1047.25" departLane="best" departPos="random" departSpeed="max" color="blue" speedFactor="0.9000">
        <route edges="183710979#0 130048903#0"/>
    </vehicle>
    <vehicle id="vehicle_212" type="truck_truck" depart="1072.31" departLane="best" departPos="random" departSpeed="max" color="white" speedFactor="1.0000">
        <route edges="183710979#0 665787533"/>
    </vehicle>
    <vehicle id="vehicle_10" type="veh_passenger" depart="1094.40" departLane="best" departSpeed="max">
        <route edges="-130048902#1 795097767#0"/>
    </vehicle>
    <vehicle id="vehicle_181" type="truck_truck" depart="1128.60" departLane="best" departSpeed="max">
        <route edges="-130048902#1 -665787530"/>
    </vehicle>
    <vehicle id="vehicle_133" type="bus_bus" depart="1150.37" departLane="best" departPos="random" departSpeed="max" color="255,165,0" speedFactor="0.9100">
        <route edges="665787524 665787533"/>
    </vehicle>
    <vehicle id="vehicle_281" type="motorcycle_motorcycle" depart="1159.48" departLane="best" departPos="random" departSpeed="max" color="black" speedFactor="0.9900">
        <route edges="665787524 795097767#0"/>
    </vehicle>
    <vehicle id="vehicle_23" type="veh_passenger" depart="1162.80" departLane="best" departSpeed="max">
        <route edges="183710979#0 130048903#0"/>
    </vehicle>
    <vehicle id="vehicle_62" type="veh_passenger" depart="1176.29" departLane="best" departPos="random" departSpeed="max" color="139,69,19" speedFactor="1.0600">
        <route edges="183710979#0 130048903#0 129113596#0"/>
    </vehicle>
    <vehicle id="vehicle_213" type="truck_truck" depart="1176.81" departLane="best" departPos="random" departSpeed="max" color="red" speedFactor="1.0700">
        <route edges="-130048902#1 -665787530"/>
    </vehicle>
    <vehicle id="vehicle_44" type="veh_passenger" depart="1185.55" departLane="best" departPos="random" departSpeed="max" color="139,69,19" speedFactor="1.0200">
        <route edges="-130048902#1 130048903#0 -665515504"/>
    </vehicle>
    <vehicle id="vehicle_282" type="motorcycle_motorcycle" depart="1186.10" departLane="best" departPos="random" departSpeed="max" color="red" speedFactor="0.9000">
        <route edges="183710979#0 130048903#0 -665515504"/>
    </vehicle>
    <vehicle id="vehicle_134" type="bus_bus" depart="1202.31" departLane="best" departPos="random" departSpeed="max" color="red" speedFactor="0.9300">
        <route edges="-130048902#1 130048903#0 129113596#0"/>
    </vehicle>
    <vehicle id="vehicle_63" type="veh_passenger" depart="1209.45" departLane="best" departPos="random" departSpeed="max" color="white" speedFactor="1.1100">
        <route edges="665787524 -665787530"/>
    </vehicle>
    <vehicle id="vehicle_214" type="truck_truck" depart="1225.19" departLane="best" departPos="random" departSpeed="max" color="0,128,0" speedFactor="0.9100">
        <route edges="-130048902#1 -665787530"/>
    </vehicle>
    <vehicle id="vehicle_25" type="veh_passenger" depart="1231.20" departLane="best" departSpeed="max">
        <route edges="183710979#0 130048903#0 -665515504"/>
    </vehicle>
    <vehicle id="vehicle_115" type="bus_bus" depart="1231.20" departLane="best" departSpeed="max">
        <route edges="-130048902#1 -665787530"/>
    </vehicle>
    <vehicle id="vehicle_191" type="truck_truck" depart="1231.20" departLane="best" departSpeed="max">
        <route edges="183710979#0 665787533"/>
    </vehicle>
    <vehicle id="vehicle_283" type="motorcycle_motorcycle" depart="1277.51" departLane="best" departPos="random" departSpeed="max" color="black" speedFactor="1.0800">
        <route edges="-130048902#1 795097767#0"/>
    </vehicle>
    <vehicle id="vehicle_135" type="bus_bus" depart="1287.67" departLane="best" departPos="random" departSpeed="max" color="red" speedFactor="1.1500">
        <route edges="183710979#0 795097767#0"/>
    </vehicle>
    <vehicle id="vehicle_64" type="veh_passenger" depart="1302.86" departLane="best" departPos="random" departSpeed="max" color="139,69,19" speedFactor="0.8600">
        <route edges="665787524 795097767#0"/>
    </vehicle>
    <vehicle id="vehicle_284" type="motorcycle_motorcycle" depart="1318.09" departLane="best" departPos="random" departSpeed="max" color="255,165,0" speedFactor="0.8800">
        <route edges="130049554#0 -665787530"/>
    </vehicle>
    <vehicle id="vehicle_184" type="truck_truck" depart="1333.80" departLane="best" departSpeed="max">
        <route edges="183710979#0 665787533"/>
    </vehicle>
    <vehicle id="vehicle_65" type="veh_passenger" depart="1339.19" departLane="best" departPos="random" departSpeed="max" color="139,69,19" speedFactor="0.8900">
        <route edges="130049554#0 665787533"/>
    </vehicle>
    <vehicle id="vehicle_215" type="truck_truck" depart="1341.08" departLane="best" departPos="random" departSpeed="max" color="red" speedFactor="0.9300">
        <route edges="-130048902#1 -665787530"/>
    </vehicle>
    <vehicle id="vehicle_285" type="motorcycle_motorcycle" depart="1346.07" departLane="best" departPos="random" departSpeed="max" color="white" speedFactor="1.0500">
        <route edges="130049554#0 130048903#0 -665515504"/>
    </vehicle>
    <vehicle id="vehicle_136" type="bus_bus" depart="1370.75" departLane="best" departPos="random" departSpeed="max" color="0,128,0" speedFactor="0.9200">
        <route edges="183710979#0 665787533"/>
    </vehicle>
    <vehicle id="vehicle_286" type="motorcycle_motorcycle" depart="1372.62" departLane="best" departPos="random" departSpeed="max" color="128,0,128" speedFactor="1.0900">
        <route edges="130049554#0 130048903#0 -665515504"/>
    </vehicle>
    <vehicle id="vehicle_66" type="veh_passenger" depart="1372.75" departLane="best" departPos="random" departSpeed="max" color="192,192,192" speedFactor="0.8800">
        <route edges="665787524 -665787530"/>
    </vehicle>
    <vehicle id="vehicle_137" type="bus_bus" depart="1377.97" departLane="best" departPos="random" departSpeed="max" color="blue" speedFactor="0.9900">
        <route edges="130049554#0 665787533"/>
    </vehicle>
    <vehicle id="vehicle_216" type="truck_truck" depart="1408.70" departLane="best" departPos="random" departSpeed="max" color="red" speedFactor="1.1500">
        <route edges="183710979#0 665787533"/>
    </vehicle>
    <vehicle id="vehicle_67" type="veh_passenger" depart="1417.18" departLane="best" departPos="random" departSpeed="max" color="139,69,19" speedFactor="0.8700">
        <route edges="-130048902#1 130048903#0 -665515504"/>
    </vehicle>
    <vehicle id="vehicle_217" type="truck_truck" depart="1431.15" departLane="best" departPos="random" departSpeed="max" color="blue" speedFactor="0.9200">
        <route edges="-130048902#1 -665787530"/>
    </vehicle>
    <vehicle id="vehicle_13" type="veh_passenger" depart="1436.40" departLane="best" departSpeed="max">
        <route edges="130049554#0 665787533"/>
    </vehicle>
    <vehicle id="vehicle_110" type="bus_bus" depart="1436.40" departLane="best" departSpeed="max">
        <route edges="-130048902#1 -665787530"/>
    </vehicle>
    <vehicle id="vehicle_190" type="truck_truck" depart="1436.40" departLane="best" departSpeed="max">
        <route edges="-130048902#1 -665787530"/>
    </vehicle>
    <vehicle id="vehicle_251" type="motorcycle_motorcycle" depart="1436.40" departLane="best" departSpeed="max">
        <route edges="665787524 795097767#0"/>
    </vehicle>
    <vehicle id="vehicle_3" type="veh_passenger" depart="1504.81" departLane="best" departSpeed="max">
        <route edges="130049554#0 130048903#0 -665515504"/>
    </vehicle>
    <vehicle id="vehicle_138" type="bus_bus" depart="1530.37" departLane="best" departPos="random" departSpeed="max" color="red" speedFactor="0.9600">
        <route edges="130049554#0 665787533"/>
    </vehicle>
    <vehicle id="vehicle_287" type="motorcycle_motorcycle" depart="1540.20" departLane="best" departPos="random" departSpeed="max" color="black" speedFactor="0.9500">