<?xml version='1.0' encoding='utf-8'?>
<routes xmlns:xsi="http://www.w3.org/2001/XMLSchema-instance" xsi:noNamespaceSchemaLocation="http://sumo.dlr.de/xsd/routes_file.xsd"><vType id="truck_truck" vClass="truck" guiShape="truck" color="255,255,255" maxSpeed="25.0" length="10.0" />
    <trip id="truck_822331_0" depart="2641.22" from="690977719#0" to="183543973#0" departLane="best" type="truck_truck" departSpeed="max" /><trip id="truck_822331_1" depart="0.00" from="109973440" to="183543973#0" departLane="best" type="truck_truck" departSpeed="max" /><trip id="truck_822331_2" depart="880.41" from="690977719#0" to="-183541938#7" departLane="best" type="truck_truck" departSpeed="max" /><trip id="truck_822331_3" depart="2289.05" from="690977719#0" to="183543973#0" departLane="best" type="truck_truck" departSpeed="max" /><trip id="truck_822331_4" depart="3521.62" from="109973440" to="-690977716#1" departLane="best" type="truck_truck" departSpeed="max" /><trip id="truck_822331_5" depart="528.24" from="109973440" to="-690977716#1" departLane="best" type="truck_truck" departSpeed="max" /><trip id="truck_822331_6" depart="3169.46" from="109973440" to="183543973#0" departLane="best" type="truck_truck" departSpeed="max" /><trip id="truck_822331_7" depart="2993.38" from="690977719#0" to="183543973#0" departLane="best" type="truck_truck" departSpeed="max" /><trip id="truck_822331_8" depart="704.32" from="-282194769#1" to="-183541938#7" departLane="best" type="truck_truck" departSpeed="max" /><trip id="truck_822331_9" depart="1056.49" from="-282194769#1" to="-690977716#1" departLane="best" type="truck_truck" departSpeed="max" /><trip id="truck_822331_10" depart="1232.57" from="690977719#0" to="183543973#0" departLane="best" type="truck_truck" departSpeed="max" /><trip id="truck_822331_11" depart="2112.97" from="109973440" to="-690977716#1" departLane="best" type="truck_truck" departSpeed="max" /><trip id="truck_822331_12" depart="1584.73" from="690977719#0" to="-183541938#7" departLane="best" type="truck_truck" departSpeed="max" /><trip id="truck_822331_13" depart="3345.54" from="109973440" to="-690977716#1" departLane="best" type="truck_truck" departSpeed="max" /><trip id="truck_822331_14" depart="1760.81" from="690977719#0" to="-183541938#7" departLane="best" type="truck_truck" departSpeed="max" /><trip id="truck_822331_15" depart="1936.89" from="690977719#0" to="183543973#0" departLane="best" type="truck_truck" departSpeed="max" /><trip id="truck_822331_enh_16" depart="1.53" from="690977719#0" to="-183541938#7" type="truck_truck" color="255,255,255" departLane="best" departSpeed="max" departPos="random" speedFactor="0.96" /><trip id="truck_822331_enh_17" depart="273.11" from="690977719#0" to="-183541938#7" type="truck_truck" color="255,255,0" departLane="best" departSpeed="max" departPos="random" speedFactor="1.07" /><trip id="truck_822331_enh_18" depart="523.09" from="109973440" to="-690977716#1" type="truck_truck" color="255,255,0" departLane="best" departSpeed="max" departPos="random" speedFactor="1.11" /><trip id="truck_822331_enh_19" depart="786.39" from="109973440" to="183543973#0" type="truck_truck" color="255,0,0" departLane="best" departSpeed="max" departPos="random" speedFactor="0.91" /><trip id="truck_822331_enh_20" depart="1050.77" from="690977719#0" to="183543973#0" type="truck_truck" color="0,128,0" departLane="best" departSpeed="max" departPos="random" speedFactor="1.12" /><trip id="truck_822331_enh_21" depart="1291.08" from="-282194769#1" to="-690977716#1" type="truck_truck" color="128,128,128" departLane="best" departSpeed="max" departPos="random" speedFactor="0.98" /><trip id="truck_822331_enh_22" depart="1560.96" from="690977719#0" to="183543973#0" type="truck_truck" color="255,255,0" departLane="best" departSpeed="max" departPos="random" speedFactor="1.04" /><trip id="truck_822331_enh_23" depart="1828.89" from="690977719#0" to="-183541938#7" type="truck_truck" color="0,0,0" departLane="best" departSpeed="max" departPos="random" speedFactor="1.11" /><trip id="truck_822331_enh_24" depart="2092.37" from="-282194769#1" to="-183541938#7" type="truck_truck" color="0,0,0" departLane="best" departSpeed="max" departPos="random" speedFactor="1.08" /><trip id="truck_822331_enh_25" depart="2363.53" from="109973440" to="-690977716#1" type="truck_truck" color="0,0,0" departLane="best" departSpeed="max" departPos="random" speedFactor="1.1" /><trip id="truck_822331_enh_26" depart="2614.88" from="690977719#0" to="-183541938#7" type="truck_truck" color="255,255,0" departLane="best" departSpeed="max" departPos="random" speedFactor="1.03" /><trip id="truck_822331_enh_27" depart="2860.13" from="690977719#0" to="-183541938#7" type="truck_truck" color="255,0,0" departLane="best" departSpeed="max" departPos="random" speedFactor="1.09" /><trip id="truck_822331_enh_28" depart="3130.87" from="109973440" to="-690977716#1" type="truck_truck" color="255,0,0" departLane="best" departSpeed="max" departPos="random" speedFactor="1.0" /><trip id="truck_822331_enh_29" depart="3383.20" from="109973440" to="-690977716#1" type="truck_truck" color="0,0,255" departLane="best" departSpeed="max" departPos="random" speedFactor="1.03" /></routes>