<?xml version="1.0" encoding="UTF-8"?>

<!-- generated on 2025-09-17 21:58:12.259011 by randomTrips.py v1_24_0+0000-b72eb3fabc8
<configuration>
    <net-file value="osm.net.xml.gz"/>
    <output-trip-file value="osm.passenger.trips.xml"/>
    <route-file value="osm.passenger.rou.xml"/>
    <prefix value="veh"/>
    <trip-attributes value="departLane=&quot;best&quot;"/>
    <fringe-start-attributes value="departSpeed=&quot;max&quot;"/>
    <vehicle-class value="passenger"/>
    <lanes value="True"/>
    <fringe-factor value="5"/>
    <allow-fringe.min-length value="1000.0"/>
    <edge-permission value="passenger"/>
    <via-edge-types value="highway.motorway,highway.motorway_link,highway.trunk_link,highway.primary_link,highway.secondary_link,highway.tertiary_link"/>
    <seed value="44"/>
    <min-distance value="300.0"/>
    <min-distance.fringe value="10.0"/>
    <remove-loops value="True"/>
    <insertion-density value="12.0"/>
</configuration>
-->

<routes xmlns:xsi="http://www.w3.org/2001/XMLSchema-instance" xsi:noNamespaceSchemaLocation="http://sumo.dlr.de/xsd/routes_file.xsd">
    <vType id="veh_passenger" vClass="passenger"/>
    <trip id="veh0" depart="0.00" from="109973440" to="-690977716#1" departLane="best" type="veh_passenger" departSpeed="max"/>
    <trip id="veh1" depart="117.39" from="690977719#0" to="-183541938#7" departLane="best" type="veh_passenger" departSpeed="max"/>
    <trip id="veh2" depart="234.77" from="-282194769#1" to="-183541938#7" departLane="best" type="veh_passenger" departSpeed="max"/>
    <trip id="veh3" depart="352.16" from="-282194769#1" to="-183541938#7" departLane="best" type="veh_passenger" departSpeed="max"/>
    <trip id="veh4" depart="469.55" from="-282194769#1" to="-690977716#1" departLane="best" type="veh_passenger" departSpeed="max"/>
    <trip id="veh5" depart="586.94" from="690977719#0" to="183543973#0" departLane="best" type="veh_passenger" departSpeed="max"/>
    <trip id="veh6" depart="704.32" from="-282194769#1" to="-690977716#1" departLane="best" type="veh_passenger" departSpeed="max"/>
    <trip id="veh7" depart="821.71" from="690977719#0" to="-183541938#7" departLane="best" type="veh_passenger" departSpeed="max"/>
    <trip id="veh8" depart="939.10" from="-282194769#1" to="-183541938#7" departLane="best" type="veh_passenger" departSpeed="max"/>
    <trip id="veh9" depart="1056.49" from="690977719#0" to="-183541938#7" departLane="best" type="veh_passenger" departSpeed="max"/>
    <trip id="veh10" depart="1173.87" from="690977719#0" to="183543973#0" departLane="best" type="veh_passenger" departSpeed="max"/>
    <trip id="veh11" depart="1291.26" from="-282194769#1" to="-690977716#1" departLane="best" type="veh_passenger" departSpeed="max"/>
    <trip id="veh12" depart="1408.65" from="109973440" to="183543973#0" departLane="best" type="veh_passenger" departSpeed="max"/>
    <trip id="veh13" depart="1526.04" from="-282194769#1" to="-690977716#1" departLane="best" type="veh_passenger" departSpeed="max"/>
    <trip id="veh14" depart="1643.42" from="-282194769#1" to="-183541938#7" departLane="best" type="veh_passenger" departSpeed="max"/>
    <trip id="veh15" depart="1760.81" from="690977719#0" to="183543973#0" departLane="best" type="veh_passenger" departSpeed="max"/>
    <trip id="veh16" depart="1878.20" from="690977719#0" to="183543973#0" departLane="best" type="veh_passenger" departSpeed="max"/>
    <trip id="veh17" depart="1995.59" from="690977719#0" to="183543973#0" departLane="best" type="veh_passenger" departSpeed="max"/>
    <trip id="veh18" depart="2112.97" from="109973440" to="-690977716#1" departLane="best" type="veh_passenger" departSpeed="max"/>
    <trip id="veh19" depart="2230.36" from="-282194769#1" to="-690977716#1" departLane="best" type="veh_passenger" departSpeed="max"/>
    <trip id="veh20" depart="2347.75" from="690977719#0" to="183543973#0" departLane="best" type="veh_passenger" departSpeed="max"/>
    <trip id="veh21" depart="2465.14" from="690977719#0" to="-183541938#7" departLane="best" type="veh_passenger" departSpeed="max"/>
    <trip id="veh22" depart="2582.52" from="-282194769#1" to="-690977716#1" departLane="best" type="veh_passenger" departSpeed="max"/>
    <trip id="veh23" depart="2699.91" from="-282194769#1" to="-183541938#7" departLane="best" type="veh_passenger" departSpeed="max"/>
    <trip id="veh24" depart="2817.30" from="690977719#0" to="-183541938#7" departLane="best" type="veh_passenger" departSpeed="max"/>
    <trip id="veh25" depart="2934.69" from="690977719#0" to="-183541938#7" departLane="best" type="veh_passenger" departSpeed="max"/>
    <trip id="veh26" depart="3052.07" from="690977719#0" to="183543973#0" departLane="best" type="veh_passenger" departSpeed="max"/>
    <trip id="veh27" depart="3169.46" from="-282194769#1" to="-183541938#7" departLane="best" type="veh_passenger" departSpeed="max"/>
    <trip id="veh28" depart="3286.85" from="690977719#0" to="-183541938#7" departLane="best" type="veh_passenger" departSpeed="max"/>
    <trip id="veh29" depart="3404.24" from="690977719#0" to="183543973#0" departLane="best" type="veh_passenger" departSpeed="max"/>
    <trip id="veh30" depart="3521.62" from="-282194769#1" to="-183541938#7" departLane="best" type="veh_passenger" departSpeed="max"/>
</routes>
