<?xml version="1.0" encoding="UTF-8"?>

<!-- generated on 2025-09-26 19:57:04 by Eclipse SUMO duarouter Version 1.24.0
<duarouterConfiguration xmlns:xsi="http://www.w3.org/2001/XMLSchema-instance" xsi:noNamespaceSchemaLocation="http://sumo.dlr.de/xsd/duarouterConfiguration.xsd">

    <input>
        <net-file value="C:/Users/kgaqu/OneDrive/Documents/4th Year/Capstone 2/v10/backend/networks/perpetual_molino_area/perpetual_molino_area.net.xml"/>
        <route-files value="C:/Users/kgaqu/AppData/Local/Temp/tmprcxohdvk.trips.xml"/>
    </input>

    <output>
        <output-file value="C:/Users/kgaqu/OneDrive/Documents/4th Year/Capstone 2/v10/backend/networks/perpetual_molino_area/routes/osm.enhanced.rou.xml"/>
    </output>

    <processing>
        <max-alternatives value="3"/>
        <remove-loops value="true"/>
        <weights.random-factor value="1.2"/>
        <route-choice-method value="gawron"/>
    </processing>

    <report>
        <ignore-errors value="true"/>
    </report>

</duarouterConfiguration>
-->

<routes xmlns:xsi="http://www.w3.org/2001/XMLSchema-instance" xsi:noNamespaceSchemaLocation="http://sumo.dlr.de/xsd/routes_file.xsd">
    <vType id="veh_passenger" maxSpeed="55.56" vClass="passenger" guiShape="passenger" color="grey" accel="2.6" decel="4.5"/>
    <vehicle id="vehicle_27" type="veh_passenger" depart="1.20" departLane="best" departPos="random" departSpeed="max" color="255,20,147" speedFactor="0.8900">
        <route edges="690977719#0 183543973#0"/>
    </vehicle>
    <vType id="motorcycle_motorcycle" length="2.50" maxSpeed="50.00" vClass="motorcycle" guiShape="motorcycle" color="red"/>
    <vehicle id="vehicle_168" type="motorcycle_motorcycle" depart="1.20" departLane="best" departPos="random" departSpeed="max" color="255,165,0" speedFactor="0.9700">
        <route edges="690977719#0 183543973#0"/>
    </vehicle>
    <vType id="truck_truck" length="10.00" maxSpeed="25.00" vClass="truck" guiShape="truck" color="white"/>
    <vehicle id="vehicle_143" type="truck_truck" depart="1.53" departLane="best" departPos="random" departSpeed="max" color="white" speedFactor="0.9600">
        <route edges="690977719#0 -183541938#7"/>
    </vehicle>
    <vehicle id="vehicle_19" type="veh_passenger" depart="27.78" departLane="best" departSpeed="max">
        <route edges="109973440 -690977716#1"/>
    </vehicle>
    <vehicle id="vehicle_0" type="veh_passenger" depart="117.39" departLane="best" departSpeed="max">
        <route edges="690977719#0 -183541938#7"/>
    </vehicle>
    <vType id="bus_bus" length="12.00" maxSpeed="27.78" vClass="bus" guiShape="bus" color="yellow"/>
    <vehicle id="vehicle_94" type="bus_bus" depart="160.89" departLane="best" departPos="random" departSpeed="max" color="white" speedFactor="0.9900">
        <route edges="690977719#0 -183541938#7"/>
    </vehicle>
    <vehicle id="vehicle_28" type="veh_passenger" depart="180.29" departLane="best" departPos="random" departSpeed="max" color="192,192,192" speedFactor="0.9000">
        <route edges="-282194769#1 -690977716#1"/>
    </vehicle>
    <vehicle id="vehicle_169" type="motorcycle_motorcycle" depart="180.29" departLane="best" departPos="random" departSpeed="max" color="white" speedFactor="0.9000">
        <route edges="690977719#0 183543973#0"/>
    </vehicle>
    <vehicle id="vehicle_29" type="veh_passenger" depart="234.14" departLane="best" departPos="random" departSpeed="max" color="128,0,128" speedFactor="0.9700">
        <route edges="109973440 183543973#0"/>
    </vehicle>
    <vehicle id="vehicle_170" type="motorcycle_motorcycle" depart="234.14" departLane="best" departPos="random" departSpeed="max" color="yellow" speedFactor="0.8600">
        <route edges="-282194769#1 -690977716#1"/>
    </vehicle>
    <vehicle id="vehicle_30" type="veh_passenger" depart="254.59" departLane="best" departPos="random" departSpeed="max" color="cyan" speedFactor="1.0400">
        <route edges="109973440 183543973#0"/>
    </vehicle>
    <vehicle id="vehicle_171" type="motorcycle_motorcycle" depart="254.59" departLane="best" departPos="random" departSpeed="max" color="128,0,128" speedFactor="1.0100">
        <route edges="690977719#0 183543973#0"/>
    </vehicle>
    <vehicle id="vehicle_95" type="bus_bus" depart="272.66" departLane="best" departPos="random" departSpeed="max" color="grey" speedFactor="1.0900">
        <route edges="109973440 -690977716#1"/>
    </vehicle>
    <vehicle id="vehicle_144" type="truck_truck" depart="273.11" departLane="best" departPos="random" departSpeed="max" color="yellow" speedFactor="1.0700">
        <route edges="690977719#0 -183541938#7"/>
    </vehicle>
    <vehicle id="vehicle_24" type="veh_passenger" depart="317.48" departLane="best" departPos="random" departSpeed="max" color="cyan" speedFactor="1.1200">
        <route edges="109973440 183543973#0"/>
    </vehicle>
    <vehicle id="vehicle_96" type="bus_bus" depart="334.91" departLane="best" departPos="random" departSpeed="max" color="yellow" speedFactor="0.8600">
        <route edges="109973440 -690977716#1"/>
    </vehicle>
    <vehicle id="vehicle_31" type="veh_passenger" depart="340.56" departLane="best" departPos="random" departSpeed="max" color="red" speedFactor="0.9000">
        <route edges="-282194769#1 -690977716#1"/>
    </vehicle>
    <vehicle id="vehicle_172" type="motorcycle_motorcycle" depart="340.56" departLane="best" departPos="random" departSpeed="max" color="black" speedFactor="0.9900">
        <route edges="-282194769#1 -690977716#1"/>
    </vehicle>
    <vehicle id="vehicle_10" type="veh_passenger" depart="352.16" departLane="best" departSpeed="max">
        <route edges="-282194769#1 -183541938#7"/>
    </vehicle>
    <vehicle id="vehicle_91" type="bus_bus" depart="352.16" departLane="best" departSpeed="max">
        <route edges="109973440 183543973#0"/>
    </vehicle>
    <vehicle id="vehicle_163" type="motorcycle_motorcycle" depart="352.16" departLane="best" departSpeed="max">
        <route edges="-282194769#1 -690977716#1"/>
    </vehicle>
    <vehicle id="vehicle_32" type="veh_passenger" depart="448.02" departLane="best" departPos="random" departSpeed="max" color="blue" speedFactor="0.8600">
        <route edges="-282194769#1 -183541938#7"/>
    </vehicle>
    <vehicle id="vehicle_173" type="motorcycle_motorcycle" depart="448.02" departLane="best" departPos="random" departSpeed="max" color="128,0,128" speedFactor="0.9600">
        <route edges="-282194769#1 -690977716#1"/>
    </vehicle>
    <vehicle id="vehicle_33" type="veh_passenger" depart="450.58" departLane="best" departPos="random" departSpeed="max" color="128,0,128" speedFactor="1.0100">
        <route edges="109973440 -690977716#1"/>
    </vehicle>
    <vehicle id="vehicle_174" type="motorcycle_motorcycle" depart="450.58" departLane="best" departPos="random" departSpeed="max" color="blue" speedFactor="1.0500">
        <route edges="-282194769#1 -690977716#1"/>
    </vehicle>
    <vehicle id="vehicle_7" type="veh_passenger" depart="469.55" departLane="best" departSpeed="max">
        <route edges="-282194769#1 -690977716#1"/>
    </vehicle>
    <vehicle id="vehicle_34" type="veh_passenger" depart="505.26" departLane="best" departPos="random" departSpeed="max" color="50,205,50" speedFactor="0.8900">
        <route edges="690977719#0 -183541938#7"/>
    </vehicle>
    <vehicle id="vehicle_175" type="motorcycle_motorcycle" depart="505.26" departLane="best" departPos="random" departSpeed="max" color="yellow" speedFactor="0.8900">
        <route edges="109973440 -690977716#1"/>
    </vehicle>
    <vehicle id="vehicle_35" type="veh_passenger" depart="509.52" departLane="best" departPos="random" departSpeed="max" color="50,205,50" speedFactor="1.0000">
        <route edges="690977719#0 183543973#0"/>
    </vehicle>
    <vehicle id="vehicle_176" type="motorcycle_motorcycle" depart="509.52" departLane="best" departPos="random" departSpeed="max" color="blue" speedFactor="0.9000">
        <route edges="-282194769#1 -183541938#7"/>
    </vehicle>
    <vehicle id="vehicle_145" type="truck_truck" depart="523.09" departLane="best" departPos="random" departSpeed="max" color="yellow" speedFactor="1.1100">
        <route edges="109973440 -690977716#1"/>
    </vehicle>
    <vehicle id="vehicle_97" type="bus_bus" depart="523.12" departLane="best" departPos="random" departSpeed="max" color="yellow" speedFactor="0.8500">
        <route edges="109973440 -690977716#1"/>
    </vehicle>
    <vehicle id="vehicle_132" type="truck_truck" depart="528.24" departLane="best" departSpeed="max">
        <route edges="109973440 -690977716#1"/>
    </vehicle>
    <vehicle id="vehicle_98" type="bus_bus" depart="529.40" departLane="best" departPos="random" departSpeed="max" color="white" speedFactor="1.1400">
        <route edges="-282194769#1 -183541938#7"/>
    </vehicle>
    <vehicle id="vehicle_1" type="veh_passenger" depart="586.94" departLane="best" departSpeed="max">
        <route edges="690977719#0 183543973#0"/>
    </vehicle>
    <vehicle id="vehicle_25" type="veh_passenger" depart="618.59" departLane="best" departPos="random" departSpeed="max" color="255,165,0" speedFactor="1.0900">
        <route edges="109973440 -690977716#1"/>
    </vehicle>
    <vehicle id="vehicle_99" type="bus_bus" depart="677.88" departLane="best" departPos="random" departSpeed="max" color="grey" speedFactor="1.1300">
        <route edges="109973440 183543973#0"/>
    </vehicle>
    <vehicle id="vehicle_36" type="veh_passenger" depart="700.18" departLane="best" departPos="random" departSpeed="max" color="255,165,0" speedFactor="0.8700">
        <route edges="109973440 183543973#0"/>
    </vehicle>
    <vehicle id="vehicle_177" type="motorcycle_motorcycle" depart="700.18" departLane="best" departPos="random" departSpeed="max" color="255,165,0" speedFactor="0.9500">
        <route edges="690977719#0 -183541938#7"/>
    </vehicle>
    <vehicle id="vehicle_37" type="veh_passenger" depart="701.90" departLane="best" departPos="random" departSpeed="max" color="128,0,128" speedFactor="1.0400">
        <route edges="109973440 183543973#0"/>
    </vehicle>
    <vehicle id="vehicle_178" type="motorcycle_motorcycle" depart="701.90" departLane="best" departPos="random" departSpeed="max" color="black" speedFactor="1.1100">
        <route edges="-282194769#1 -690977716#1"/>
    </vehicle>
    <vehicle id="vehicle_135" type="truck_truck" depart="704.32" departLane="best" departSpeed="max">
        <route edges="-282194769#1 -183541938#7"/>
    </vehicle>
    <vehicle id="vehicle_161" type="motorcycle_motorcycle" depart="704.32" departLane="best" departSpeed="max">
        <route edges="690977719#0 183543973#0"/>
    </vehicle>
    <vehicle id="vehicle_38" type="veh_passenger" depart="768.97" departLane="best" departPos="random" departSpeed="max" color="grey" speedFactor="0.8700">
        <route edges="690977719#0 183543973#0"/>
    </vehicle>
    <vehicle id="vehicle_179" type="motorcycle_motorcycle" depart="768.97" departLane="best" departPos="random" departSpeed="max" color="yellow" speedFactor="0.9000">
        <route edges="690977719#0 -183541938#7"/>
    </vehicle>
    <vehicle id="vehicle_146" type="truck_truck" depart="786.39" departLane="best" departPos="random" departSpeed="max" color="red" speedFactor="0.9100">
        <route edges="109973440 183543973#0"/>
    </vehicle>
    <vehicle id="vehicle_100" type="bus_bus" depart="796.30" departLane="best" departPos="random" departSpeed="max" color="blue" speedFactor="0.9500">
        <route edges="-282194769#1 -183541938#7"/>
    </vehicle>
    <vehicle id="vehicle_17" type="veh_passenger" depart="821.71" departLane="best" departSpeed="max">
        <route edges="690977719#0 -183541938#7"/>
    </vehicle>
    <vehicle id="vehicle_101" type="bus_bus" depart="866.95" departLane="best" departPos="random" departSpeed="max" color="yellow" speedFactor="1.0400">
        <route edges="109973440 -690977716#1"/>
    </vehicle>
    <vehicle id="vehicle_39" type="veh_passenger" depart="871.39" departLane="best" departPos="random" departSpeed="max" color="139,69,19" speedFactor="0.8800">
        <route edges="-282194769#1 -690977716#1"/>
    </vehicle>
    <vehicle id="vehicle_180" type="motorcycle_motorcycle" depart="871.39" departLane="best" departPos="random" departSpeed="max" color="red" speedFactor="1.1100">
        <route edges="690977719#0 183543973#0"/>
    </vehicle>
    <vehicle id="vehicle_40" type="veh_passenger" depart="872.00" departLane="best" departPos="random" departSpeed="max" color="blue" speedFactor="1.0800">
        <route edges="690977719#0 183543973#0"/>
    </vehicle>
    <vehicle id="vehicle_181" type="motorcycle_motorcycle" depart="872.00" departLane="best" departPos="random" departSpeed="max" color="red" speedFactor="0.9600">
        <route edges="-282194769#1 -183541938#7"/>
    </vehicle>
    <vehicle id="vehicle_129" type="truck_truck" depart="880.41" departLane="best" departSpeed="max">
        <route edges="690977719#0 -183541938#7"/>
    </vehicle>
    <vehicle id="vehicle_41" type="veh_passenger" depart="925.35" departLane="best" departPos="random" departSpeed="max" color="0,128,0" speedFactor="0.9500">
        <route edges="690977719#0 -183541938#7"/>
    </vehicle>
    <vehicle id="vehicle_182" type="motorcycle_motorcycle" depart="925.35" departLane="best" departPos="random" departSpeed="max" color="black" speedFactor="0.9100">
        <route edges="109973440 -690977716#1"/>
    </vehicle>
    <vehicle id="vehicle_14" type="veh_passenger" depart="939.10" departLane="best" departSpeed="max">
        <route edges="-282194769#1 -183541938#7"/>
    </vehicle>
    <vehicle id="vehicle_26" type="veh_passenger" depart="945.58" departLane="best" departPos="random" departSpeed="max" color="139,69,19" speedFactor="1.0200">
        <route edges="690977719#0 183543973#0"/>
    </vehicle>
    <vehicle id="vehicle_42" type="veh_passenger" depart="1036.13" departLane="best" departPos="random" departSpeed="max" color="black" speedFactor="1.1100">
        <route edges="-282194769#1 -690977716#1"/>
    </vehicle>
    <vehicle id="vehicle_183" type="motorcycle_motorcycle" depart="1036.13" departLane="best" departPos="random" departSpeed="max" color="blue" speedFactor="0.8800">
        <route edges="-282194769#1 -690977716#1"/>
    </vehicle>
    <vehicle id="vehicle_43" type="veh_passenger" depart="1036.95" departLane="best" departPos="random" departSpeed="max" color="blue" speedFactor="0.9000">
        <route edges="109973440 183543973#0"/>
    </vehicle>
    <vehicle id="vehicle_184" type="motorcycle_motorcycle" depart="1036.95" departLane="best" departPos="random" departSpeed="max" color="red" speedFactor="0.9800">
        <route edges="-282194769#1 -690977716#1"/>
    </vehicle>
    <vehicle id="vehicle_102" type="bus_bus" depart="1039.25" departLane="best" departPos="random" departSpeed="max" color="red" speedFactor="0.9700">
        <route edges="690977719#0 -183541938#7"/>
    </vehicle>
    <vehicle id="vehicle_103" type="bus_bus" depart="1050.47" departLane="best" departPos="random" departSpeed="max" color="white" speedFactor="0.9200">
        <route edges="109973440 -690977716#1"/>
    </vehicle>
    <vehicle id="vehicle_147" type="truck_truck" depart="1050.77" departLane="best" departPos="random" departSpeed="max" color="0,128,0" speedFactor="1.1200">
        <route edges="690977719#0 183543973#0"/>
    </vehicle>
    <vehicle id="vehicle_18" type="veh_passenger" depart="1056.49" departLane="best" departSpeed="max">
        <route edges="690977719#0 -183541938#7"/>
    </vehicle>
    <vehicle id="vehicle_84" type="bus_bus" depart="1056.49" departLane="best" departSpeed="max">
        <route edges="109973440 -690977716#1"/>
    </vehicle>
    <vehicle id="vehicle_136" type="truck_truck" depart="1056.49" departLane="best" departSpeed="max">
        <route edges="-282194769#1 -690977716#1"/>
    </vehicle>
    <vehicle id="vehicle_158" type="motorcycle_motorcycle" depart="1056.49" departLane="best" departSpeed="max">
        <route edges="109973440 -690977716#1"/>
    </vehicle>
    <vehicle id="vehicle_44" type="veh_passenger" depart="1164.66" departLane="best" departPos="random" departSpeed="max" color="139,69,19" speedFactor="1.0600">
        <route edges="690977719#0 183543973#0"/>
    </vehicle>
    <vehicle id="vehicle_185" type="motorcycle_motorcycle" depart="1164.66" departLane="best" departPos="random" departSpeed="max" color="black" speedFactor="0.9900">
        <route edges="690977719#0 -183541938#7"/>
    </vehicle>
    <vehicle id="vehicle_13" type="veh_passenger" depart="1173.87" departLane="best" departSpeed="max">
        <route edges="690977719#0 183543973#0"/>
    </vehicle>
    <vehicle id="vehicle_45" type="veh_passenger" depart="1197.44" departLane="best" departPos="random" departSpeed="max" color="white" speedFactor="1.1100">
        <route edges="-282194769#1 -690977716#1"/>
    </vehicle>
    <vehicle id="vehicle_186" type="motorcycle_motorcycle" depart="1197.44" departLane="best" departPos="random" departSpeed="max" color="red" speedFactor="0.9000">
        <route edges="109973440 -690977716#1"/>
    </vehicle>
    <vehicle id="vehicle_104" type="bus_bus" depart="1207.66" departLane="best" departPos="random" departSpeed="max" color="yellow" speedFactor="0.8600">
        <route edges="-282194769#1 -690977716#1"/>
    </vehicle>
    <vehicle id="vehicle_137" type="truck_truck" depart="1232.57" departLane="best" departSpeed="max">
        <route edges="690977719#0 183543973#0"/>
    </vehicle>
    <vehicle id="vehicle_85" type="bus_bus" depart="1280.07" departLane="best" departSpeed="max">
        <route edges="690977719#0 183543973#0"/>
    </vehicle>
    <vehicle id="vehicle_46" type="veh_passenger" depart="1289.82" departLane="best" departPos="random" departSpeed="max" color="139,69,19" speedFactor="0.8600">
        <route edges="690977719#0 -183541938#7"/>
    </vehicle>
    <vehicle id="vehicle_187" type="motorcycle_motorcycle" depart="1289.82" departLane="best" departPos="random" departSpeed="max" color="black" speedFactor="1.0800">
        <route edges="690977719#0 183543973#0"/>
    </vehicle>
    <vehicle id="vehicle_148" type="truck_truck" depart="1291.08" departLane="best" departPos="random" departSpeed="max" color="grey" speedFactor="0.9800">
        <route edges="-282194769#1 -690977716#1"/>
    </vehicle>
    <vehicle id="vehicle_16" type="veh_passenger" depart="1291.26" departLane="best" departSpeed="max">
        <route edges="-282194769#1 -690977716#1"/>
    </vehicle>
    <vehicle id="vehicle_105" type="bus_bus" depart="1315.95" departLane="best" departPos="random" departSpeed="max" color="yellow" speedFactor="0.9700">
        <route edges="109973440 -690977716#1"/>
    </vehicle>
    <vehicle id="vehicle_47" type="veh_passenger" depart="1326.01" departLane="best" departPos="random" departSpeed="max" color="139,69,19" speedFactor="0.8900">
        <route edges="-282194769#1 -690977716#1"/>
    </vehicle>
    <vehicle id="vehicle_188" type="motorcycle_motorcycle" depart="1326.01" departLane="best" departPos="random" departSpeed="max" color="255,165,0" speedFactor="0.8800">
        <route edges="690977719#0 183543973#0"/>
    </vehicle>
    <vehicle id="vehicle_48" type="veh_passenger" depart="1359.03" departLane="best" departPos="random" departSpeed="max" color="192,192,192" speedFactor="0.8800">
        <route edges="-282194769#1 -690977716#1"/>
    </vehicle>
    <vehicle id="vehicle_189" type="motorcycle_motorcycle" depart="1359.03" departLane="best" departPos="random" departSpeed="max" color="white" speedFactor="1.0500">
        <route edges="690977719#0 183543973#0"/>
    </vehicle>
    <vehicle id="vehicle_106" type="bus_bus" depart="1382.28" departLane="best" departPos="random" departSpeed="max" color="grey" speedFactor="0.9700">
        <route edges="-282194769#1 -690977716#1"/>
    </vehicle>
    <vehicle id="vehicle_49" type="veh_passenger" depart="1403.23" departLane="best" departPos="random" departSpeed="max" color="139,69,19" speedFactor="0.8700">
        <route edges="-282194769#1 -690977716#1"/>
    </vehicle>
    <vehicle id="vehicle_190" type="motorcycle_motorcycle" depart="1403.23" departLane="best" departPos="random" departSpeed="max" color="128,0,128" speedFactor="1.0900">
        <route edges="109973440 183543973#0"/>
    </vehicle>
    <vehicle id="vehicle_9" type="veh_passenger" depart="1408.65" departLane="best" departSpeed="max">
        <route edges="109973440 183543973#0"/>
    </vehicle>
    <vehicle id="vehicle_86" type="bus_bus" depart="1408.65" departLane="best" departSpeed="max">
        <route edges="109973440 -690977716#1"/>
    </vehicle>
    <vehicle id="vehicle_162" type="motorcycle_motorcycle" depart="1408.65" departLane="best" departSpeed="max">
        <route edges="-282194769#1 -690977716#1"/>
    </vehicle>
    <vehicle id="vehicle_11" type="veh_passenger" depart="1526.04" departLane="best" departSpeed="max">
        <route edges="-282194769#1 -690977716#1"/>
    </vehicle>
    <vehicle id="vehicle_50" type="veh_passenger" depart="1554.78" departLane="best" departPos="random" departSpeed="max" color="white" speedFactor="1.0900">
        <route edges="690977719#0 183543973#0"/>
    </vehicle>
    <vehicle id="vehicle_191" type="motorcycle_motorcycle" depart="1554.78" departLane="best" departPos="random" departSpeed="max" color="black" speedFactor="0.9500">
        <route edges="690977719#0 -183541938#7"/>
    </vehicle>
    <vehicle id="vehicle_51" type="veh_passenger" depart="1555.93" departLane="best" departPos="random" departSpeed="max" color="black" speedFactor="0.9900">
        <route edges="690977719#0 -183541938#7"/>
    </vehicle>
    <vehicle id="vehicle_192" type="motorcycle_motorcycle" depart="1555.93" departLane="best" departPos="random" departSpeed="max" color="black" speedFactor="1.1200">
        <route edges="690977719#0 -183541938#7"/>
    </vehicle>
    <vehicle id="vehicle_107" type="bus_bus" depart="1557.29" departLane="best" departPos="random" departSpeed="max" color="grey" speedFactor="1.1200">
        <route edges="690977719#0 183543973#0"/>
    </vehicle>
    <vehicle id="vehicle_149" type="truck_truck" depart="1560.96" departLane="best" departPos="random" departSpeed="max" color="yellow" speedFactor="1.0400">
        <route edges="690977719#0 183543973#0"/>
    </vehicle>
    <vehicle id="vehicle_108" type="bus_bus" depart="1575.33" departLane="best" departPos="random" departSpeed="max" color="yellow" speedFactor="1.0200">
        <route edges="690977719#0 183543973#0"/>
    </vehicle>
    <vehicle id="vehicle_139" type="truck_truck" depart="1584.73" departLane="best" departSpeed="max">
        <route edges="690977719#0 -183541938#7"/>
    </vehicle>
    <vehicle id="vehicle_92" type="bus_bus" depart="1595.75" departLane="best" departPos="random" departSpeed="max" color="blue" speedFactor="1.1200">
        <route edges="109973440 183543973#0"/>
    </vehicle>
    <vehicle id="vehicle_52" type="veh_passenger" depart="1618.57" departLane="best" departPos="random" departSpeed="max" color="255,165,0" speedFactor="0.8600">
        <route edges="690977719#0 -183541938#7"/>
    </vehicle>
    <vehicle id="vehicle_193" type="motorcycle_motorcycle" depart="1618.57" departLane="best" departPos="random" departSpeed="max" color="0,128,0" speedFactor="0.9000">
        <route edges="109973440 -690977716#1"/>
    </vehicle>
    <vehicle id="vehicle_109" type="bus_bus" depart="1711.79" departLane="best" departPos="random" departSpeed="max" color="yellow" speedFactor="0.9100">
        <route edges="-282194769#1 -690977716#1"/>
    </vehicle>
    <vehicle id="vehicle_53" type="veh_passenger" depart="1727.77" departLane="best" departPos="random" departSpeed="max" color="red" speedFactor="0.9100">
        <route edges="109973440 -690977716#1"/>
    </vehicle>
    <vehicle id="vehicle_194" type="motorcycle_motorcycle" depart="1727.77" departLane="best" departPos="random" departSpeed="max" color="red" speedFactor="1.0700">
        <route edges="690977719#0 183543973#0"/>
    </vehicle>
    <vehicle id="vehicle_15" type="veh_passenger" depart="1760.81" departLane="best" departSpeed="max">
        <route edges="690977719#0 183543973#0"/>
    </vehicle>
    <vehicle id="vehicle_141" type="truck_truck" depart="1760.81" departLane="best" departSpeed="max">
        <route edges="690977719#0 -183541938#7"/>
    </vehicle>
    <vehicle id="vehicle_159" type="motorcycle_motorcycle" depart="1760.81" departLane="best" departSpeed="max">
        <route edges="109973440 183543973#0"/>
    </vehicle>
    <vehicle id="vehicle_54" type="veh_passenger" depart="1770.10" departLane="best" departPos="random" departSpeed="max" color="139,69,19" speedFactor="1.0200">
        <route edges="-282194769#1 -183541938#7"/>
    </vehicle>
    <vehicle id="vehicle_195" type="motorcycle_motorcycle" depart="1770.10" departLane="best" departPos="random" departSpeed="max" color="0,128,0" speedFactor="1.0800">
        <route edges="109973440 183543973#0"/>
    </vehicle>
    <vehicle id="vehicle_55" type="veh_passenger" depart="1812.38" departLane="best" departPos="random" departSpeed="max" color="grey" speedFactor="1.1200">
        <route edges="690977719#0 183543973#0"/>
    </vehicle>
    <vehicle id="vehicle_196" type="motorcycle_motorcycle" depart="1812.38" departLane="best" departPos="random" departSpeed="max" color="255,165,0" speedFactor="0.8600">
        <route edges="-282194769#1 -183541938#7"/>
    </vehicle>
    <vehicle id="vehicle_110" type="bus_bus" depart="1822.85" departLane="best" departPos="random" departSpeed="max" color="0,128,0" speedFactor="1.1400">
        <route edges="109973440 183543973#0"/>
    </vehicle>
    <vehicle id="vehicle_150" type="truck_truck" depart="1828.89" departLane="best" departPos="random" departSpeed="max" color="black" speedFactor="1.1100">
        <route edges="690977719#0 -183541938#7"/>
    </vehicle>
    <vehicle id="vehicle_56" type="veh_passenger" depart="1864.91" departLane="best" departPos="random" departSpeed="max" color="139,69,19" speedFactor="1.1100">
        <route edges="109973440 183543973#0"/>
    </vehicle>
    <vehicle id="vehicle_197" type="motorcycle_motorcycle" depart="1864.91" departLane="best" departPos="random" departSpeed="max" color="black" speedFactor="1.0500">
        <route edges="-282194769#1 -183541938#7"/>
    </vehicle>
    <vehicle id="vehicle_3" type="veh_passenger" depart="1878.20" departLane="best" departSpeed="max">
        <route edges="690977719#0 183543973#0"/>
    </vehicle>
    <vehicle id="vehicle_111" type="bus_bus" depart="1892.49" departLane="best" departPos="random" departSpeed="max" color="grey" speedFactor="0.9700">
        <route edges="-282194769#1 -183541938#7"/>
    </vehicle>
    <vehicle id="vehicle_57" type="veh_passenger" depart="1895.52" departLane="best" departPos="random" departSpeed="max" color="128,0,128" speedFactor="1.0900">
        <route edges="109973440 -690977716#1"/>
    </vehicle>
    <vehicle id="vehicle_198" type="motorcycle_motorcycle" depart="1895.52" departLane="best" departPos="random" departSpeed="max" color="blue" speedFactor="0.9700">
        <route edges="-282194769#1 -183541938#7"/>
    </vehicle>
    <vehicle id="vehicle_142" type="truck_truck" depart="1936.89" departLane="best" departSpeed="max">
        <route edges="690977719#0 183543973#0"/>
    </vehicle>
    <vehicle id="vehicle_93" type="bus_bus" depart="1949.05" departLane="best" departPos="random" departSpeed="max" color="white" speedFactor="1.1100">
        <route edges="-282194769#1 -183541938#7"/>
    </vehicle>
    <vehicle id="vehicle_12" type="veh_passenger" depart="1995.59" departLane="best" departSpeed="max">
        <route edges="690977719#0 183543973#0"/>
    </vehicle>
    <vehicle id="vehicle_58" type="veh_passenger" depart="2067.21" departLane="best" departPos="random" departSpeed="max" color="255,20,147" speedFactor="1.0300">
        <route edges="-282194769#1 -690977716#1"/>
    </vehicle>
    <vehicle id="vehicle_199" type="motorcycle_motorcycle" depart="2067.21" departLane="best" departPos="random" departSpeed="max" color="128,0,128" speedFactor="0.9700">
        <route edges="-282194769#1 -690977716#1"/>
    </vehicle>
    <vehicle id="vehicle_112" type="bus_bus" depart="2070.65" departLane="best" departPos="random" departSpeed="max" color="0,128,0" speedFactor="1.1100">
        <route edges="690977719#0 -183541938#7"/>
    </vehicle>
    <vehicle id="vehicle_59" type="veh_passenger" depart="2074.99" departLane="best" departPos="random" departSpeed="max" color="yellow" speedFactor="1.0900">
        <route edges="690977719#0 -183541938#7"/>
    </vehicle>
    <vehicle id="vehicle_200" type="motorcycle_motorcycle" depart="2074.99" departLane="best" departPos="random" departSpeed="max" color="white" speedFactor="1.1100">
        <route edges="-282194769#1 -183541938#7"/>
    </vehicle>
    <vehicle id="vehicle_113" type="bus_bus" depart="2090.43" departLane="best" departPos="random" departSpeed="max" color="white" speedFactor="0.9800">
        <route edges="109973440 -690977716#1"/>
    </vehicle>
    <vehicle id="vehicle_151" type="truck_truck" depart="2092.37" departLane="best" departPos="random" departSpeed="max" color="black" speedFactor="1.0800">
        <route edges="-282194769#1 -183541938#7"/>
    </vehicle>
    <vehicle id="vehicle_60" type="veh_passenger" depart="2099.27" departLane="best" departPos="random" departSpeed="max" color="black" speedFactor="1.1200">
        <route edges="690977719#0 183543973#0"/>
    </vehicle>
    <vehicle id="vehicle_201" type="motorcycle_motorcycle" depart="2099.27" departLane="best" departPos="random" departSpeed="max" color="red" speedFactor="0.9700">
        <route edges="690977719#0 183543973#0"/>
    </vehicle>