<?xml version='1.0' encoding='utf-8'?>
<routes xmlns:xsi="http://www.w3.org/2001/XMLSchema-instance" xsi:noNamespaceSchemaLocation="http://sumo.dlr.de/xsd/routes_file.xsd"><vType id="bus_bus" vClass="bus" guiShape="bus" color="255,255,0" maxSpeed="27.78" length="12.0" />
    <trip id="bus_820090_0" depart="1056.49" from="109973440" to="-690977716#1" departLane="best" type="bus_bus" departSpeed="max" /><trip id="bus_820090_1" depart="0.00" from="690977719#0" to="183543973#0" departLane="best" type="bus_bus" departSpeed="max" /><trip id="bus_820090_2" depart="1408.65" from="109973440" to="-690977716#1" departLane="best" type="bus_bus" departSpeed="max" /><trip id="bus_820090_3" depart="2817.30" from="690977719#0" to="183543973#0" departLane="best" type="bus_bus" departSpeed="max" /><trip id="bus_820090_4" depart="3169.46" from="690977719#0" to="183543973#0" departLane="best" type="bus_bus" departSpeed="max" /><trip id="bus_820090_5" depart="2465.14" from="109973440" to="183543973#0" departLane="best" type="bus_bus" departSpeed="max" /><trip id="bus_820090_6" depart="3521.62" from="-282194769#1" to="-690977716#1" departLane="best" type="bus_bus" departSpeed="max" /><trip id="bus_820090_7" depart="352.16" from="109973440" to="183543973#0" departLane="best" type="bus_bus" departSpeed="max" /><trip id="bus_820090_enh_8" depart="0.00" from="109973440" to="183543973#0" type="bus_bus" color="0,0,255" departLane="best" departSpeed="max" departPos="random" speedFactor="1.12" /><trip id="bus_820090_enh_9" depart="0.00" from="-282194769#1" to="-183541938#7" type="bus_bus" color="255,255,255" departLane="best" departSpeed="max" departPos="random" speedFactor="1.11" /><trip id="bus_820090_enh_10" depart="160.89" from="690977719#0" to="-183541938#7" type="bus_bus" color="255,255,255" departLane="best" departSpeed="max" departPos="random" speedFactor="0.99" /><trip id="bus_820090_enh_11" depart="272.66" from="109973440" to="-690977716#1" type="bus_bus" color="128,128,128" departLane="best" departSpeed="max" departPos="random" speedFactor="1.09" /><trip id="bus_820090_enh_12" depart="334.91" from="109973440" to="-690977716#1" type="bus_bus" color="255,255,0" departLane="best" departSpeed="max" departPos="random" speedFactor="0.86" /><trip id="bus_820090_enh_13" depart="523.12" from="109973440" to="-690977716#1" type="bus_bus" color="255,255,0" departLane="best" departSpeed="max" departPos="random" speedFactor="0.85" /><trip id="bus_820090_enh_14" depart="529.40" from="-282194769#1" to="-183541938#7" type="bus_bus" color="255,255,255" departLane="best" departSpeed="max" departPos="random" speedFactor="1.14" /><trip id="bus_820090_enh_15" depart="677.88" from="109973440" to="183543973#0" type="bus_bus" color="128,128,128" departLane="best" departSpeed="max" departPos="random" speedFactor="1.13" /><trip id="bus_820090_enh_16" depart="796.30" from="-282194769#1" to="-183541938#7" type="bus_bus" color="0,0,255" departLane="best" departSpeed="max" departPos="random" speedFactor="0.95" /><trip id="bus_820090_enh_17" depart="866.95" from="109973440" to="-690977716#1" type="bus_bus" color="255,255,0" departLane="best" departSpeed="max" departPos="random" speedFactor="1.04" /><trip id="bus_820090_enh_18" depart="1039.25" from="690977719#0" to="-183541938#7" type="bus_bus" color="255,0,0" departLane="best" departSpeed="max" departPos="random" speedFactor="0.97" /><trip id="bus_820090_enh_19" depart="1050.47" from="109973440" to="-690977716#1" type="bus_bus" color="255,255,255" departLane="best" departSpeed="max" departPos="random" speedFactor="0.92" /><trip id="bus_820090_enh_20" depart="1207.66" from="-282194769#1" to="-690977716#1" type="bus_bus" color="255,255,0" departLane="best" departSpeed="max" departPos="random" speedFactor="0.86" /><trip id="bus_820090_enh_21" depart="1315.95" from="109973440" to="-690977716#1" type="bus_bus" color="255,255,0" departLane="best" departSpeed="max" departPos="random" speedFactor="0.97" /><trip id="bus_820090_enh_22" depart="1382.28" from="-282194769#1" to="-690977716#1" type="bus_bus" color="128,128,128" departLane="best" departSpeed="max" departPos="random" speedFactor="0.97" /><trip id="bus_820090_enh_23" depart="1557.29" from="690977719#0" to="183543973#0" type="bus_bus" color="128,128,128" departLane="best" departSpeed="max" departPos="random" speedFactor="1.12" /><trip id="bus_820090_enh_24" depart="1575.33" from="690977719#0" to="183543973#0" type="bus_bus" color="255,255,0" departLane="best" departSpeed="max" departPos="random" speedFactor="1.02" /><trip id="bus_820090_enh_25" depart="1711.79" from="-282194769#1" to="-690977716#1" type="bus_bus" color="255,255,0" departLane="best" departSpeed="max" departPos="random" speedFactor="0.91" /><trip id="bus_820090_enh_26" depart="1822.85" from="109973440" to="183543973#0" type="bus_bus" color="0,128,0" departLane="best" departSpeed="max" departPos="random" speedFactor="1.14" /><trip id="bus_820090_enh_27" depart="1892.49" from="-282194769#1" to="-183541938#7" type="bus_bus" color="128,128,128" departLane="best" departSpeed="max" departPos="random" speedFactor="0.97" /><trip id="bus_820090_enh_28" depart="2070.65" from="690977719#0" to="-183541938#7" type="bus_bus" color="0,128,0" departLane="best" departSpeed="max" departPos="random" speedFactor="1.11" /><trip id="bus_820090_enh_29" depart="2090.43" from="109973440" to="-690977716#1" type="bus_bus" color="255,255,255" departLane="best" departSpeed="max" departPos="random" speedFactor="0.98" /><trip id="bus_820090_enh_30" depart="2240.79" from="690977719#0" to="183543973#0" type="bus_bus" color="255,165,0" departLane="best" departSpeed="max" departPos="random" speedFactor="0.88" /><trip id="bus_820090_enh_31" depart="2343.07" from="690977719#0" to="183543973#0" type="bus_bus" color="128,128,128" departLane="best" departSpeed="max" departPos="random" speedFactor="0.92" /><trip id="bus_820090_enh_32" depart="2400.93" from="690977719#0" to="-183541938#7" type="bus_bus" color="255,165,0" departLane="best" departSpeed="max" departPos="random" speedFactor="1.11" /><trip id="bus_820090_enh_33" depart="2565.00" from="690977719#0" to="183543973#0" type="bus_bus" color="0,128,0" departLane="best" departSpeed="max" departPos="random" speedFactor="1.11" /><trip id="bus_820090_enh_34" depart="2618.19" from="690977719#0" to="-183541938#7" type="bus_bus" color="255,255,255" departLane="best" departSpeed="max" departPos="random" speedFactor="1.06" /><trip id="bus_820090_enh_35" depart="2751.90" from="690977719#0" to="-183541938#7" type="bus_bus" color="255,255,0" departLane="best" departSpeed="max" departPos="random" speedFactor="1.01" /><trip id="bus_820090_enh_36" depart="2876.62" from="109973440" to="183543973#0" type="bus_bus" color="255,165,0" departLane="best" departSpeed="max" departPos="random" speedFactor="1.04" /><trip id="bus_820090_enh_37" depart="2911.46" from="690977719#0" to="183543973#0" type="bus_bus" color="255,0,0" departLane="best" departSpeed="max" departPos="random" speedFactor="1.09" /><trip id="bus_820090_enh_38" depart="3101.89" from="-282194769#1" to="-690977716#1" type="bus_bus" color="0,128,0" departLane="best" departSpeed="max" departPos="random" speedFactor="1.03" /><trip id="bus_820090_enh_39" depart="3137.04" from="690977719#0" to="-183541938#7" type="bus_bus" color="255,255,0" departLane="best" departSpeed="max" departPos="random" speedFactor="1.0" /><trip id="bus_820090_enh_40" depart="3264.02" from="109973440" to="-690977716#1" type="bus_bus" color="255,0,0" departLane="best" departSpeed="max" departPos="random" speedFactor="1.07" /><trip id="bus_820090_enh_41" depart="3390.89" from="-282194769#1" to="-690977716#1" type="bus_bus" color="255,165,0" departLane="best" departSpeed="max" departPos="random" speedFactor="0.91" /><trip id="bus_820090_enh_42" depart="3420.45" from="690977719#0" to="183543973#0" type="bus_bus" color="255,0,0" departLane="best" departSpeed="max" departPos="random" speedFactor="0.93" /></routes>