<?xml version='1.0' encoding='utf-8'?>
<routes xmlns:xsi="http://www.w3.org/2001/XMLSchema-instance" xsi:noNamespaceSchemaLocation="http://sumo.dlr.de/xsd/routes_file.xsd"><vType id="veh_passenger" vClass="passenger" guiShape="passenger" color="128,128,128" maxSpeed="55.56" accel="2.6" decel="4.5" />
    <trip id="passenger_817976_0" depart="117.39" from="690977719#0" to="-183541938#7" departLane="best" type="veh_passenger" departSpeed="max" /><trip id="passenger_817976_1" depart="586.94" from="690977719#0" to="183543973#0" departLane="best" type="veh_passenger" departSpeed="max" /><trip id="passenger_817976_2" depart="2112.97" from="109973440" to="-690977716#1" departLane="best" type="veh_passenger" departSpeed="max" /><trip id="passenger_817976_3" depart="1878.20" from="690977719#0" to="183543973#0" departLane="best" type="veh_passenger" departSpeed="max" /><trip id="passenger_817976_4" depart="2347.75" from="690977719#0" to="183543973#0" departLane="best" type="veh_passenger" departSpeed="max" /><trip id="passenger_817976_5" depart="2817.30" from="690977719#0" to="-183541938#7" departLane="best" type="veh_passenger" departSpeed="max" /><trip id="passenger_817976_6" depart="3169.46" from="-282194769#1" to="-183541938#7" departLane="best" type="veh_passenger" departSpeed="max" /><trip id="passenger_817976_7" depart="469.55" from="-282194769#1" to="-690977716#1" departLane="best" type="veh_passenger" departSpeed="max" /><trip id="passenger_817976_8" depart="3286.85" from="690977719#0" to="-183541938#7" departLane="best" type="veh_passenger" departSpeed="max" /><trip id="passenger_817976_9" depart="1408.65" from="109973440" to="183543973#0" departLane="best" type="veh_passenger" departSpeed="max" /><trip id="passenger_817976_10" depart="352.16" from="-282194769#1" to="-183541938#7" departLane="best" type="veh_passenger" departSpeed="max" /><trip id="passenger_817976_11" depart="1526.04" from="-282194769#1" to="-690977716#1" departLane="best" type="veh_passenger" departSpeed="max" /><trip id="passenger_817976_12" depart="1995.59" from="690977719#0" to="183543973#0" departLane="best" type="veh_passenger" departSpeed="max" /><trip id="passenger_817976_13" depart="1173.87" from="690977719#0" to="183543973#0" departLane="best" type="veh_passenger" departSpeed="max" /><trip id="passenger_817976_14" depart="939.10" from="-282194769#1" to="-183541938#7" departLane="best" type="veh_passenger" departSpeed="max" /><trip id="passenger_817976_15" depart="1760.81" from="690977719#0" to="183543973#0" departLane="best" type="veh_passenger" departSpeed="max" /><trip id="passenger_817976_16" depart="1291.26" from="-282194769#1" to="-690977716#1" departLane="best" type="veh_passenger" departSpeed="max" /><trip id="passenger_817976_17" depart="821.71" from="690977719#0" to="-183541938#7" departLane="best" type="veh_passenger" departSpeed="max" /><trip id="passenger_817976_18" depart="1056.49" from="690977719#0" to="-183541938#7" departLane="best" type="veh_passenger" departSpeed="max" /><trip id="passenger_817976_19" depart="0.00" from="109973440" to="-690977716#1" departLane="best" type="veh_passenger" departSpeed="max" /><trip id="passenger_817976_20" depart="2230.36" from="-282194769#1" to="-690977716#1" departLane="best" type="veh_passenger" departSpeed="max" /><trip id="passenger_817976_21" depart="2465.14" from="690977719#0" to="-183541938#7" departLane="best" type="veh_passenger" departSpeed="max" /><trip id="passenger_817976_22" depart="2699.91" from="-282194769#1" to="-183541938#7" departLane="best" type="veh_passenger" departSpeed="max" /><trip id="passenger_817976_23" depart="3521.62" from="-282194769#1" to="-183541938#7" departLane="best" type="veh_passenger" departSpeed="max" /><trip id="passenger_817976_enh_24" depart="0.00" from="109973440" to="183543973#0" type="veh_passenger" color="0,255,255" departLane="best" departSpeed="max" departPos="random" speedFactor="1.12" /><trip id="passenger_817976_enh_25" depart="0.00" from="109973440" to="-690977716#1" type="veh_passenger" color="255,165,0" departLane="best" departSpeed="max" departPos="random" speedFactor="1.09" /><trip id="passenger_817976_enh_26" depart="0.00" from="690977719#0" to="183543973#0" type="veh_passenger" color="139,69,19" departLane="best" departSpeed="max" departPos="random" speedFactor="1.02" /><trip id="passenger_817976_enh_27" depart="1.20" from="690977719#0" to="183543973#0" type="veh_passenger" color="255,20,147" departLane="best" departSpeed="max" departPos="random" speedFactor="0.89" /><trip id="passenger_817976_enh_28" depart="180.29" from="-282194769#1" to="-690977716#1" type="veh_passenger" color="192,192,192" departLane="best" departSpeed="max" departPos="random" speedFactor="0.9" /><trip id="passenger_817976_enh_29" depart="234.14" from="109973440" to="183543973#0" type="veh_passenger" color="128,0,128" departLane="best" departSpeed="max" departPos="random" speedFactor="0.97" /><trip id="passenger_817976_enh_30" depart="254.59" from="109973440" to="183543973#0" type="veh_passenger" color="0,255,255" departLane="best" departSpeed="max" departPos="random" speedFactor="1.04" /><trip id="passenger_817976_enh_31" depart="340.56" from="-282194769#1" to="-690977716#1" type="veh_passenger" color="255,0,0" departLane="best" departSpeed="max" departPos="random" speedFactor="0.9" /><trip id="passenger_817976_enh_32" depart="448.02" from="-282194769#1" to="-183541938#7" type="veh_passenger" color="0,0,255" departLane="best" departSpeed="max" departPos="random" speedFactor="0.86" /><trip id="passenger_817976_enh_33" depart="450.58" from="109973440" to="-690977716#1" type="veh_passenger" color="128,0,128" departLane="best" departSpeed="max" departPos="random" speedFactor="1.01" /><trip id="passenger_817976_enh_34" depart="505.26" from="690977719#0" to="-183541938#7" type="veh_passenger" color="50,205,50" departLane="best" departSpeed="max" departPos="random" speedFactor="0.89" /><trip id="passenger_817976_enh_35" depart="509.52" from="690977719#0" to="183543973#0" type="veh_passenger" color="50,205,50" departLane="best" departSpeed="max" departPos="random" speedFactor="1.0" /><trip id="passenger_817976_enh_36" depart="700.18" from="109973440" to="183543973#0" type="veh_passenger" color="255,165,0" departLane="best" departSpeed="max" departPos="random" speedFactor="0.87" /><trip id="passenger_817976_enh_37" depart="701.90" from="109973440" to="183543973#0" type="veh_passenger" color="128,0,128" departLane="best" departSpeed="max" departPos="random" speedFactor="1.04" /><trip id="passenger_817976_enh_38" depart="768.97" from="690977719#0" to="183543973#0" type="veh_passenger" color="128,128,128" departLane="best" departSpeed="max" departPos="random" speedFactor="0.87" /><trip id="passenger_817976_enh_39" depart="871.39" from="-282194769#1" to="-690977716#1" type="veh_passenger" color="139,69,19" departLane="best" departSpeed="max" departPos="random" speedFactor="0.88" /><trip id="passenger_817976_enh_40" depart="872.00" from="690977719#0" to="183543973#0" type="veh_passenger" color="0,0,255" departLane="best" departSpeed="max" departPos="random" speedFactor="1.08" /><trip id="passenger_817976_enh_41" depart="925.35" from="690977719#0" to="-183541938#7" type="veh_passenger" color="0,128,0" departLane="best" departSpeed="max" departPos="random" speedFactor="0.95" /><trip id="passenger_817976_enh_42" depart="1036.13" from="-282194769#1" to="-690977716#1" type="veh_passenger" color="0,0,0" departLane="best" departSpeed="max" departPos="random" speedFactor="1.11" /><trip id="passenger_817976_enh_43" depart="1036.95" from="109973440" to="183543973#0" type="veh_passenger" color="0,0,255" departLane="best" departSpeed="max" departPos="random" speedFactor="0.9" /><trip id="passenger_817976_enh_44" depart="1164.66" from="690977719#0" to="183543973#0" type="veh_passenger" color="139,69,19" departLane="best" departSpeed="max" departPos="random" speedFactor="1.06" /><trip id="passenger_817976_enh_45" depart="1197.44" from="-282194769#1" to="-690977716#1" type="veh_passenger" color="255,255,255" departLane="best" departSpeed="max" departPos="random" speedFactor="1.11" /><trip id="passenger_817976_enh_46" depart="1289.82" from="690977719#0" to="-183541938#7" type="veh_passenger" color="139,69,19" departLane="best" departSpeed="max" departPos="random" speedFactor="0.86" /><trip id="passenger_817976_enh_47" depart="1326.01" from="-282194769#1" to="-690977716#1" type="veh_passenger" color="139,69,19" departLane="best" departSpeed="max" departPos="random" speedFactor="0.89" /><trip id="passenger_817976_enh_48" depart="1359.03" from="-282194769#1" to="-690977716#1" type="veh_passenger" color="192,192,192" departLane="best" departSpeed="max" departPos="random" speedFactor="0.88" /><trip id="passenger_817976_enh_49" depart="1403.23" from="-282194769#1" to="-690977716#1" type="veh_passenger" color="139,69,19" departLane="best" departSpeed="max" departPos="random" speedFactor="0.87" /><trip id="passenger_817976_enh_50" depart="1554.78" from="690977719#0" to="183543973#0" type="veh_passenger" color="255,255,255" departLane="best" departSpeed="max" departPos="random" speedFactor="1.09" /><trip id="passenger_817976_enh_51" depart="1555.93" from="690977719#0" to="-183541938#7" type="veh_passenger" color="0,0,0" departLane="best" departSpeed="max" departPos="random" speedFactor="0.99" /><trip id="passenger_817976_enh_52" depart="1618.57" from="690977719#0" to="-183541938#7" type="veh_passenger" color="255,165,0" departLane="best" departSpeed="max" departPos="random" speedFactor="0.86" /><trip id="passenger_817976_enh_53" depart="1727.77" from="109973440" to="-690977716#1" type="veh_passenger" color="255,0,0" departLane="best" departSpeed="max" departPos="random" speedFactor="0.91" /><trip id="passenger_817976_enh_54" depart="1770.10" from="-282194769#1" to="-183541938#7" type="veh_passenger" color="139,69,19" departLane="best" departSpeed="max" departPos="random" speedFactor="1.02" /><trip id="passenger_817976_enh_55" depart="1812.38" from="690977719#0" to="183543973#0" type="veh_passenger" color="128,128,128" departLane="best" departSpeed="max" departPos="random" speedFactor="1.12" /><trip id="passenger_817976_enh_56" depart="1864.91" from="109973440" to="183543973#0" type="veh_passenger" color="139,69,19" departLane="best" departSpeed="max" departPos="random" speedFactor="1.11" /><trip id="passenger_817976_enh_57" depart="1895.52" from="109973440" to="-690977716#1" type="veh_passenger" color="128,0,128" departLane="best" departSpeed="max" departPos="random" speedFactor="1.09" /><trip id="passenger_817976_enh_58" depart="2067.21" from="-282194769#1" to="-690977716#1" type="veh_passenger" color="255,20,147" departLane="best" departSpeed="max" departPos="random" speedFactor="1.03" /><trip id="passenger_817976_enh_59" depart="2074.99" from="690977719#0" to="-183541938#7" type="veh_passenger" color="255,255,0" departLane="best" departSpeed="max" departPos="random" speedFactor="1.09" /><trip id="passenger_817976_enh_60" depart="2099.27" from="690977719#0" to="183543973#0" type="veh_passenger" color="0,0,0" departLane="best" departSpeed="max" departPos="random" speedFactor="1.12" /><trip id="passenger_817976_enh_61" depart="2211.38" from="-282194769#1" to="-183541938#7" type="veh_passenger" color="50,205,50" departLane="best" departSpeed="max" departPos="random" speedFactor="1.14" /><trip id="passenger_817976_enh_62" depart="2235.84" from="109973440" to="183543973#0" type="veh_passenger" color="192,192,192" departLane="best" departSpeed="max" departPos="random" speedFactor="0.96" /><trip id="passenger_817976_enh_63" depart="2337.74" from="690977719#0" to="183543973#0" type="veh_passenger" color="128,128,128" departLane="best" departSpeed="max" departPos="random" speedFactor="1.06" /><trip id="passenger_817976_enh_64" depart="2346.72" from="690977719#0" to="-183541938#7" type="veh_passenger" color="0,255,255" departLane="best" departSpeed="max" departPos="random" speedFactor="1.09" /><trip id="passenger_817976_enh_65" depart="2415.76" from="-282194769#1" to="-690977716#1" type="veh_passenger" color="255,20,147" departLane="best" departSpeed="max" departPos="random" speedFactor="1.1" /><trip id="passenger_817976_enh_66" depart="2553.13" from="109973440" to="-690977716#1" type="veh_passenger" color="255,255,255" departLane="best" departSpeed="max" departPos="random" speedFactor="0.96" /><trip id="passenger_817976_enh_67" depart="2576.90" from="109973440" to="183543973#0" type="veh_passenger" color="0,0,0" departLane="best" departSpeed="max" departPos="random" speedFactor="1.05" /><trip id="passenger_817976_enh_68" depart="2617.98" from="109973440" to="183543973#0" type="veh_passenger" color="128,128,128" departLane="best" departSpeed="max" departPos="random" speedFactor="0.97" /><trip id="passenger_817976_enh_69" depart="2630.57" from="109973440" to="-690977716#1" type="veh_passenger" color="255,165,0" departLane="best" departSpeed="max" departPos="random" speedFactor="1.05" /><trip id="passenger_817976_enh_70" depart="2749.06" from="-282194769#1" to="-690977716#1" type="veh_passenger" color="50,205,50" departLane="best" departSpeed="max" departPos="random" speedFactor="1.03" /><trip id="passenger_817976_enh_71" depart="2782.47" from="-282194769#1" to="-183541938#7" type="veh_passenger" color="0,128,0" departLane="best" departSpeed="max" departPos="random" speedFactor="0.99" /><trip id="passenger_817976_enh_72" depart="2864.75" from="-282194769#1" to="-183541938#7" type="veh_passenger" color="50,205,50" departLane="best" departSpeed="max" departPos="random" speedFactor="1.02" /><trip id="passenger_817976_enh_73" depart="2933.48" from="690977719#0" to="-183541938#7" type="veh_passenger" color="255,255,255" departLane="best" departSpeed="max" departPos="random" speedFactor="0.97" /><trip id="passenger_817976_enh_74" depart="3020.03" from="109973440" to="183543973#0" type="veh_passenger" color="128,0,128" departLane="best" departSpeed="max" departPos="random" speedFactor="0.97" /><trip id="passenger_817976_enh_75" depart="3067.36" from="-282194769#1" to="-183541938#7" type="veh_passenger" color="0,0,255" departLane="best" departSpeed="max" departPos="random" speedFactor="0.96" /><trip id="passenger_817976_enh_76" depart="3089.80" from="109973440" to="183543973#0" type="veh_passenger" color="255,165,0" departLane="best" departSpeed="max" departPos="random" speedFactor="0.97" /><trip id="passenger_817976_enh_77" depart="3117.95" from="-282194769#1" to="-183541938#7" type="veh_passenger" color="255,20,147" departLane="best" departSpeed="max" departPos="random" speedFactor="0.98" /><trip id="passenger_817976_enh_78" depart="3254.88" from="690977719#0" to="-183541938#7" type="veh_passenger" color="139,69,19" departLane="best" departSpeed="max" departPos="random" speedFactor="0.95" /><trip id="passenger_817976_enh_79" depart="3273.89" from="690977719#0" to="183543973#0" type="veh_passenger" color="255,255,255" departLane="best" departSpeed="max" departPos="random" speedFactor="1.14" /><trip id="passenger_817976_enh_80" depart="3403.41" from="690977719#0" to="-183541938#7" type="veh_passenger" color="255,255,255" departLane="best" departSpeed="max" departPos="random" speedFactor="0.89" /><trip id="passenger_817976_enh_81" depart="3447.37" from="109973440" to="-690977716#1" type="veh_passenger" color="128,128,128" departLane="best" departSpeed="max" departPos="random" speedFactor="0.88" /><trip id="passenger_817976_enh_82" depart="3501.94" from="-282194769#1" to="-183541938#7" type="veh_passenger" color="0,128,0" departLane="best" departSpeed="max" departPos="random" speedFactor="1.0" /><trip id="passenger_817976_enh_83" depart="3502.91" from="690977719#0" to="183543973#0" type="veh_passenger" color="0,0,255" departLane="best" departSpeed="max" departPos="random" speedFactor="1.05" /></routes>