<?xml version="1.0" encoding="UTF-8"?>

<!-- generated on 2025-09-17 21:56:55 by Eclipse SUMO netedit Version 1.24.0
-->

<additional xmlns:xsi="http://www.w3.org/2001/XMLSchema-instance" xsi:noNamespaceSchemaLocation="http://sumo.dlr.de/xsd/additional_file.xsd">
    <!-- Shapes -->
    <poly id="1117273985" type="building.house" color="255,230,230" fill="1" layer="-1.00" shape="330.831035,265.269815 342.724046,264.667579 342.359863,257.576966 330.456062,258.179296 330.831035,265.269815"/>
    <poly id="1117273986" type="building.house" color="255,230,230" fill="1" layer="-1.00" shape="227.422403,317.891430 237.464878,319.076052 239.354059,303.245050 229.300792,302.060522 227.422403,317.891430"/>
    <poly id="1122289946" type="landuse.residential" color="235,235,227" fill="1" layer="-3.00" shape="-3.550889,271.445275 -16.894730,271.440674 -12.261999,399.808106 -179.192251,377.856757 -209.235376,377.766581 -210.508363,321.281679 -346.196029,24.876365 -151.194933,30.810199 -180.758470,168.873776 -180.946978,173.202555 -182.013200,229.885061 -87.783804,240.024662 -70.955153,240.087164 -21.860850,240.264821 -6.067797,240.325391 -3.550889,271.445275"/>
    <poly id="1131561441" type="landuse.residential" color="235,235,227" fill="1" layer="-3.00" shape="-151.194933,30.810199 -346.196029,24.876365"/>
    <poly id="1131561442" type="landuse.residential" color="235,235,227" fill="1" layer="-3.00" shape="234.467979,19.092869 228.738410,32.456440 187.867782,67.188230 174.121339,84.019624 178.858176,130.901264 178.531933,108.460679 191.564040,106.121973"/>
    <poly id="1146997707" type="amenity.taxi" color="237,199,199" fill="1" layer="-1.00" shape="61.492325,196.029681 70.102990,197.536677 67.212217,213.542495 59.086945,212.031241 61.492325,196.029681"/>
    <poly id="1153124508" type="amenity.parking" color="184,184,179" fill="1" layer="-1.00" shape="15.784466,225.270876 19.711401,225.313879 19.984138,212.141995 15.949725,212.144203 15.784466,225.270876"/>
    <poly id="1174283193" type="building.house" color="255,230,230" fill="1" layer="-1.00" shape="267.373848,308.787310 283.281230,307.131704 282.081586,295.798768 266.174197,297.454374 267.373848,308.787310"/>
    <poly id="1174283194" type="building.house" color="255,230,230" fill="1" layer="-1.00" shape="214.430173,392.418438 227.516709,392.613546 227.760413,377.350310 214.663084,377.155296 214.430173,392.418438"/>
    <poly id="1174283195" type="building.house" color="255,230,230" fill="1" layer="-1.00" shape="234.172595,224.096567 244.673911,222.244875 242.506790,210.068279 232.005469,211.919971 234.172595,224.096567"/>
    <poly id="1174283196" type="building.house" color="255,230,230" fill="1" layer="-1.00" shape="258.417323,137.397092 263.767979,137.416586 263.801323,130.145418 258.439880,130.126018 258.417323,137.397092"/>
    <poly id="1174283197" type="building.house" color="255,230,230" fill="1" layer="-1.00" shape="330.963734,156.094880 341.989012,156.175329 342.056431,146.635176 331.031245,146.565792 330.963734,156.094880"/>
    <poly id="1174283198" type="building.house" color="255,230,230" fill="1" layer="-1.00" shape="329.980135,144.793253 338.577211,144.751112 338.507479,131.869994 329.910398,131.912134 329.980135,144.793253"/>
    <poly id="1174283199" type="building.house" color="255,230,230" fill="1" layer="-1.00" shape="341.123122,143.533590 349.374799,129.926612 340.704249,130.201794 341.123122,143.533590"/>
    <poly id="1174283203" type="building.house" color="255,230,230" fill="1" layer="-1.00" shape="342.403063,119.717736 348.292751,119.699325 348.254757,109.208354 342.365067,109.226764 342.403063,119.717736"/>
    <poly id="1174283204" type="building.house" color="255,230,230" fill="1" layer="-1.00" shape="337.794634,119.459317 340.900935,119.409962 340.759535,109.428968 337.642446,109.478417 337.794634,119.459317"/>
    <poly id="1174283205" type="building.house" color="255,230,230" fill="1" layer="-1.00" shape="330.898025,119.054950 336.290664,118.941291 336.116686,110.166861 330.713161,110.269548 330.898025,119.054950"/>
    <poly id="1174283206" type="building.house" color="255,230,230" fill="1" layer="-1.00" shape="323.501391,121.908599 329.067486,121.893020 329.009410,109.111400 323.443409,109.138045 323.501391,121.908599"/>
    <poly id="1174283207" type="building.house" color="255,230,230" fill="1" layer="-1.00" shape="315.347196,118.328025 321.647352,118.372412 321.710110,108.301093 315.409952,108.256707 315.347196,118.328025"/>
    <poly id="1174283208" type="building.house" color="255,230,230" fill="1" layer="-1.00" shape="297.276273,120.533762 303.985441,120.474958 303.884282,108.933193 297.175111,108.991997 297.276273,120.533762"/>
    <poly id="1174283209" type="building.house" color="255,230,230" fill="1" layer="-1.00" shape="233.739338,121.776876 240.783664,121.803651 240.826422,108.224332 233.792976,108.208528 233.739338,121.776876"/>
    <poly id="1174283210" type="building.house" color="255,230,230" fill="1" layer="-1.00" shape="225.859508,121.193023 231.836267,121.262355 232.002813,108.268490 226.025954,108.188091 225.859508,121.193023"/>
    <poly id="1174283211" type="building.house" color="255,230,230" fill="1" layer="-1.00" shape="216.344034,119.837771 223.947995,119.715766 223.751856,108.418299 216.147891,108.540304 216.344034,119.837771"/>
    <poly id="1174283212" type="building.house" color="255,230,230" fill="1" layer="-1.00" shape="207.188279,120.139387 213.485043,119.796439 212.870556,108.768242 206.573789,109.111190 207.188279,120.139387"/>
    <poly id="1174283213" type="building.house" color="255,230,230" fill="1" layer="-1.00" shape="198.696448,118.653432 204.699455,118.025321 203.558078,107.189879 197.555068,107.817990 198.696448,118.653432"/>
    <poly id="1174283214" type="building.house" color="255,230,230" fill="1" layer="-1.00" shape="189.851932,120.003670 196.772384,118.205499 194.093683,107.970077 187.162441,109.768344 189.851932,120.003670"/>
    <poly id="1174283215" type="building.house" color="255,230,230" fill="1" layer="-1.00" shape="281.174049,145.508758 297.388289,145.621171 297.495213,131.974894 281.280867,131.851413 281.174049,145.508758"/>
    <poly id="1174283216" type="building.house" color="255,230,230" fill="1" layer="-1.00" shape="289.632431,165.332688 298.477105,165.233029 298.295627,150.681803 289.461734,150.781367 289.632431,165.332688"/>
    <poly id="1175040836" type="building.yes" color="255,230,230" fill="1" layer="-1.00" shape="312.064036,311.117973 314.095943,317.718098 321.885091,315.347934 319.853186,308.747810 312.064036,311.117973"/>
    <poly id="14936832" type="landuse.residential" color="235,235,227" fill="1" layer="-3.00" shape="231.337095,106.160571 191.564040,106.121973 178.531933,108.460679 178.858176,130.901264 203.016290,226.240052 207.181100,258.330412 208.794321,304.520102 207.249468,343.621543 203.785285,396.340902 201.683188,407.569995 351.789398,412.838699"/>
    <poly id="183691541" type="building.school" color="255,230,230" fill="1" layer="-1.00" shape="-106.829700,230.696592 -77.399399,235.916228 -72.370372,207.906256 -67.392831,180.173409 -96.812309,174.964724 -106.829700,230.696592"/>
    <poly id="183691542" type="building.school" color="255,230,230" fill="1" layer="-1.00" shape="-134.955731,229.051179 -109.652145,233.587681 -107.244252,220.341701 -132.547849,215.805195 -134.955731,229.051179"/>
    <poly id="183691543" type="building.school" color="255,230,230" fill="1" layer="-1.00" shape="-158.993630,178.255386 -101.463018,188.318930 -98.914207,173.920767 -153.398114,164.394860 -154.569549,171.034168 -157.626974,170.507682 -158.993630,178.255386"/>
    <poly id="183691544" type="building.school" color="255,230,230" fill="1" layer="-1.00" shape="-179.454302,226.465071 -142.633913,229.317819 -138.166303,223.368904 -137.309521,216.522091 -137.371626,209.450946 -140.566752,203.071326 -177.387177,200.218570 -179.454302,226.465071"/>
    <poly id="196563744" type="building.retail" color="255,230,230" fill="1" layer="-1.00" shape="20.046071,225.344142 20.478759,211.960585 41.013958,212.765311 40.621977,225.871839 20.046071,225.344142"/>
    <poly id="196563744#1" type="shop.convenience" color="237,199,255" fill="1" layer="-1.00" shape="20.046071,225.344142 20.478759,211.960585 41.013958,212.765311 40.621977,225.871839 20.046071,225.344142"/>
    <poly id="2445808" type="amenity.school" color="237,199,199" fill="1" layer="-2.00" shape="-70.955153,240.087164 -87.783804,240.024662 -182.013200,229.885061 -180.946978,173.202555 -171.817770,167.422955 -170.066209,158.056115 -156.246230,160.679294 -154.602058,141.541407 -62.439583,159.501399 -6.137266,186.939757 -6.067797,240.325391 -21.860850,240.264821 -70.955153,240.087164"/>
    <poly id="2445810" type="amenity.parking" color="184,184,179" fill="1" layer="-1.00" shape="-70.319527,236.307803 -70.955153,240.087164 -21.860850,240.264821 -21.830616,236.335841 -21.683244,218.716200 -66.516557,213.631731 -70.319527,236.307803"/>
    <poly id="262235337" type="building.yes" color="255,230,230" fill="0" layer="-1.00" shape="-366.162039,18.898725 -364.595046,11.857518 -369.772105,10.729947"/>
    <poly id="262235338" type="building.yes" color="255,230,230" fill="1" layer="-1.00" shape="-364.579338,18.552807 -358.945355,20.119036 -357.062049,13.473455 -362.685344,11.896065 -364.579338,18.552807"/>
    <poly id="262386506" type="building.yes" color="255,230,230" fill="1" layer="-1.00" shape="-368.947438,44.410102 -365.855685,45.157599 -364.137586,38.126130 -367.218554,37.378538 -368.947438,44.410102"/>
    <poly id="262386509" type="building.yes" color="255,230,230" fill="1" layer="-1.00" shape="-364.668417,52.595133 -360.982434,53.448075 -359.744852,48.202589 -363.430933,47.338581 -364.668417,52.595133"/>
    <poly id="262386514" type="building.yes" color="255,230,230" fill="1" layer="-1.00" shape="-359.430927,53.235233 -355.009128,54.347311 -353.851514,49.821872 -358.284101,48.709888 -359.430927,53.235233"/>
    <poly id="262386517" type="building.yes" color="255,230,230" fill="0" layer="-1.00" shape="-368.134171,54.706163 -366.143991,46.720556"/>
    <poly id="262386519" type="building.yes" color="255,230,230" fill="1" layer="-1.00" shape="-355.919692,19.483763 -350.881984,20.712164 -349.381933,14.645427 -354.419739,13.405960 -355.919692,19.483763"/>
    <poly id="262386525" type="building.yes" color="255,230,230" fill="1" layer="-1.00" shape="-349.522493,20.744481 -343.044829,22.568901 -341.946289,18.685857 -348.423856,16.872503 -349.522493,20.744481"/>
    <poly id="262386553" type="building.yes" color="255,230,230" fill="0" layer="-1.00" shape="-370.103833,44.165731 -368.432091,36.769464"/>
    <poly id="262386556" type="building.yes" color="255,230,230" fill="1" layer="-1.00" shape="-359.486634,29.718728 -355.714745,30.526649 -354.926973,26.878740 -358.688076,26.070724 -359.486634,29.718728"/>
    <poly id="262386559" type="building.yes" color="255,230,230" fill="0" layer="-1.00" shape="-368.893648,29.668622 -367.169626,22.083760"/>
    <poly id="262386562" type="building.yes" color="255,230,230" fill="1" layer="-1.00" shape="-358.249439,24.428978 -354.682882,25.194437 -353.977901,21.945662 -357.544458,21.180203 -358.249439,24.428978"/>
    <poly id="262386564" type="building.yes" color="255,230,230" fill="1" layer="-1.00" shape="-367.478680,28.649103 -361.481654,29.791600 -360.253701,23.450583 -366.250728,22.308086 -367.478680,28.649103"/>
    <poly id="262386571" type="building.yes" color="255,230,230" fill="1" layer="-1.00" shape="-361.114288,44.584710 -353.424356,46.874343 -351.590023,40.793600 -359.290646,38.515128 -361.114288,44.584710"/>
    <poly id="262386591" type="building.yes" color="255,230,230" fill="1" layer="-1.00" shape="-350.688659,25.524531 -348.903533,26.117515 -348.367038,24.563444 -350.260419,23.927145 -350.228935,23.827267 -352.726653,23.163080 -354.732880,30.551218 -352.245852,31.226565 -350.688659,25.524531"/>
    <poly id="262387178" type="building.yes" color="255,230,230" fill="1" layer="-1.00" shape="-368.729263,114.627169 -364.612510,115.398855 -363.210437,108.004958 -367.327191,107.233273 -368.729263,114.627169"/>
    <poly id="262387187" type="building.yes" color="255,230,230" fill="1" layer="-1.00" shape="-365.167579,65.757972 -359.751574,67.071578 -359.105866,64.443065 -364.521872,63.129458 -365.167579,65.757972"/>
    <poly id="262387195" type="building.yes" color="255,230,230" fill="0" layer="-1.00" shape="-368.728927,137.978162 -366.785503,129.583491"/>
    <poly id="262387212" type="building.yes" color="255,230,230" fill="0" layer="-1.00" shape="-367.232910,70.103256 -365.504806,62.983164"/>
    <poly id="262387216" type="building.yes" color="255,230,230" fill="1" layer="-1.00" shape="-367.626186,79.358576 -365.237797,79.857720 -363.652350,72.462212 -366.040740,71.963068 -367.626186,79.358576"/>
    <poly id="262387229" type="building.yes" color="255,230,230" fill="0" layer="-1.00" shape="-362.485736,104.545739 -361.318800,99.854214 -369.491774,97.834437"/>
    <poly id="262387234" type="building.yes" color="255,230,230" fill="1" layer="-1.00" shape="-368.256302,96.030750 -360.389143,97.621611 -358.982203,90.781013 -366.838675,89.178991 -368.256302,96.030750"/>
    <poly id="262387261" type="building.yes" color="255,230,230" fill="1" layer="-1.00" shape="-368.172538,105.558547"/>
    <poly id="262387267" type="building.yes" color="255,230,230" fill="1" layer="-1.00" shape="-363.547734,78.227106 -359.301245,79.030853 -358.073686,72.645573 -362.320175,71.841825 -363.547734,78.227106"/>
    <poly id="262387296" type="building.yes" color="255,230,230" fill="0" layer="-1.00" shape="-368.335286,78.457331 -367.025911,71.562257 -369.802907,71.033329"/>
    <poly id="262387313" type="building.yes" color="255,230,230" fill="0" layer="-1.00" shape="-369.762192,90.388843 -368.604973,85.819139"/>
    <poly id="262387315" type="building.yes" color="255,230,230" fill="1" layer="-1.00" shape="-369.401360,140.020369"/>
    <poly id="262387320" type="building.yes" color="255,230,230" fill="0" layer="-1.00" shape="-367.704215,128.152881 -365.819367,121.684353"/>
    <poly id="262387322" type="building.yes" color="255,230,230" fill="1" layer="-1.00" shape="-369.135006,91.788815"/>
    <poly id="262406591" type="building.yes" color="255,230,230" fill="1" layer="-1.00" shape="-239.386381,102.689164 -232.803710,102.963332 -232.598206,98.114262 -239.180878,97.840094 -239.386381,102.689164"/>
    <poly id="262406592" type="building.yes" color="255,230,230" fill="1" layer="-1.00" shape="-236.816810,51.371906 -233.298854,51.518067 -232.923405,42.683451 -236.441459,42.526224 -236.816810,51.371906"/>
    <poly id="262406593" type="building.yes" color="255,230,230" fill="1" layer="-1.00" shape="-236.040932,35.318210 -233.170456,35.436859 -232.910147,29.458493 -235.780624,29.339844 -236.040932,35.318210"/>
    <poly id="262406594" type="building.yes" color="255,230,230" fill="1" layer="-1.00" shape="-298.299614,50.716950 -294.781656,50.863102 -294.395539,42.017322 -297.913498,41.871170 -298.299614,50.716950"/>
    <poly id="262406595" type="building.yes" color="255,230,230" fill="1" layer="-1.00" shape="-219.055156,94.996170 -216.109182,95.114157 -215.966347,91.726457 -218.901535,91.608375 -219.055156,94.996170"/>
    <poly id="262406596" type="building.yes" color="255,230,230" fill="1" layer="-1.00" shape="-224.411897,37.805676 -220.893939,37.951839 -220.518582,29.106158 -224.036541,28.959995 -224.411897,37.805676"/>
    <poly id="262406597" type="building.yes" color="255,230,230" fill="1" layer="-1.00" shape="-196.471662,61.254269 -192.953611,61.411501 -192.567459,52.565727 -196.096200,52.419656 -196.471662,61.254269"/>
    <poly id="262406598" type="building.yes" color="255,230,230" fill="1" layer="-1.00" shape="-322.989184,59.610330 -319.471227,59.756479 -319.085022,50.921763 -322.603078,50.764548 -322.989184,59.610330"/>
    <poly id="262406599" type="building.yes" color="255,230,230" fill="1" layer="-1.00" shape="-192.599663,37.847152 -185.488146,38.149890 -185.201104,31.529416 -192.323409,31.226773 -192.599663,37.847152"/>
    <poly id="262406600" type="building.yes" color="255,230,230" fill="1" layer="-1.00" shape="-273.808802,49.893052 -265.812403,50.232258 -265.552491,44.209626 -273.548893,43.870420 -273.808802,49.893052"/>
    <poly id="262406601" type="building.yes" color="255,230,230" fill="1" layer="-1.00" shape="-296.350706,112.906403 -290.361486,113.163637 -289.949528,103.576153 -295.938751,103.318918 -296.350706,112.906403"/>
    <poly id="262406602" type="building.yes" color="255,230,230" fill="1" layer="-1.00" shape="-208.432507,38.185437 -204.914453,38.342668 -204.528303,29.496893 -208.046262,29.350728 -208.432507,38.185437"/>
    <poly id="262406603" type="building.yes" color="255,230,230" fill="1" layer="-1.00" shape="-200.604641,61.091372 -197.086687,61.237538 -196.711323,52.391859 -200.229278,52.245693 -200.604641,61.091372"/>
    <poly id="262406604" type="building.yes" color="255,230,230" fill="1" layer="-1.00" shape="-188.253323,61.071409 -185.102207,61.209732 -184.807101,54.279317 -187.947431,54.140899 -188.253323,61.071409"/>
    <poly id="262406605" type="building.yes" color="255,230,230" fill="1" layer="-1.00" shape="-187.342365,73.900907 -184.601333,74.020699 -184.305936,67.123481 -187.057659,67.014850 -187.342365,73.900907"/>
    <poly id="262406606" type="building.yes" color="255,230,230" fill="1" layer="-1.00" shape="-263.331214,101.803948 -258.280903,102.014107 -258.091046,97.840249 -263.152144,97.630185 -263.331214,101.803948"/>
    <poly id="262406607" type="building.yes" color="255,230,230" fill="1" layer="-1.00" shape="-283.713700,85.250037 -280.184961,85.396095 -279.809627,76.550411 -283.327581,76.404257 -283.713700,85.250037"/>
    <poly id="262406608" type="building.yes" color="255,230,230" fill="1" layer="-1.00" shape="-248.778922,36.758144 -245.260963,36.904304 -244.885614,28.058622 -248.403574,27.912462 -248.778922,36.758144"/>
    <poly id="262406609" type="building.yes" color="255,230,230" fill="1" layer="-1.00" shape="-255.642500,100.275567 -252.480601,100.413786 -252.212528,94.092279 -255.374330,93.965126 -255.642500,100.275567"/>
    <poly id="262406610" type="building.yes" color="255,230,230" fill="1" layer="-1.00" shape="-255.634842,60.634169 -249.451454,60.889708 -249.094083,52.453656 -255.266687,52.198021 -255.634842,60.634169"/>
    <poly id="262406611" type="building.yes" color="255,230,230" fill="1" layer="-1.00" shape="-293.608521,83.699105 -289.032908,83.902363 -288.638922,74.724510 -293.214439,74.532317 -293.608521,83.699105"/>
    <poly id="262406612" type="building.yes" color="255,230,230" fill="1" layer="-1.00" shape="-244.292511,36.630191 -240.774455,36.787417 -240.399105,27.941735 -243.917064,27.795575 -244.292511,36.630191"/>
    <poly id="262406613" type="building.yes" color="255,230,230" fill="1" layer="-1.00" shape="-259.735064,114.532386 -253.141608,114.806453 -253.016365,111.872647 -259.609821,111.598579 -259.735064,114.532386"/>
    <poly id="262406614" type="building.yes" color="255,230,230" fill="1" layer="-1.00" shape="-318.033002,50.337042 -314.514946,50.494257 -314.139623,41.648571 -317.657582,41.502421 -318.033002,50.337042"/>
    <poly id="262406615" type="building.yes" color="255,230,230" fill="1" layer="-1.00" shape="-291.188152,100.112058 -288.112642,100.239965 -287.871490,94.538435 -290.947001,94.410528 -291.188152,100.112058"/>
    <poly id="262406616" type="building.yes" color="255,230,230" fill="1" layer="-1.00" shape="-287.471894,36.898941 -283.953934,37.045095 -283.567715,28.210382 -287.085773,28.053162 -287.471894,36.898941"/>
    <poly id="262406617" type="building.yes" color="255,230,230" fill="1" layer="-1.00" shape="-216.049193,51.598924 -212.531140,51.756153 -212.144994,42.910378 -215.663048,42.753149 -216.049193,51.598924"/>
    <poly id="262406618" type="building.yes" color="255,230,230" fill="1" layer="-1.00" shape="-228.458590,60.970867 -224.940635,61.117029 -224.565184,52.282414 -228.083237,52.125186 -228.458590,60.970867"/>
    <poly id="262406619" type="building.yes" color="255,230,230" fill="1" layer="-1.00" shape="-214.335164,115.317638 -208.464697,115.564868 -208.008886,104.826056 -213.868569,104.578730 -214.335164,115.317638"/>
    <poly id="262406620" type="building.yes" color="255,230,230" fill="1" layer="-1.00" shape="-294.248298,73.501122 -289.974900,73.684903 -289.704501,67.628978 -293.977900,67.445197 -294.248298,73.501122"/>
    <poly id="262406621" type="building.yes" color="255,230,230" fill="1" layer="-1.00" shape="-212.017860,51.242571 -208.499807,51.399801 -208.113660,42.554026 -211.631616,42.407862 -212.017860,51.242571"/>
    <poly id="262406622" type="building.yes" color="255,230,230" fill="1" layer="-1.00" shape="-251.547123,102.298009 -241.921302,102.700370 -241.643703,96.234911 -251.269527,95.832550 -251.547123,102.298009"/>
    <poly id="262406623" type="building.yes" color="255,230,230" fill="1" layer="-1.00" shape="-335.005385,112.482546 -328.865152,112.738444 -328.417553,102.298499 -334.557788,102.042600 -335.005385,112.482546"/>
    <poly id="262406624" type="building.yes" color="255,230,230" fill="1" layer="-1.00" shape="-208.315140,61.369376 -204.797089,61.526606 -204.421727,52.680927 -207.939683,52.534762 -208.315140,61.369376"/>
    <poly id="262406625" type="building.yes" color="255,230,230" fill="1" layer="-1.00" shape="-309.860718,49.822543 -304.411099,50.051318 -304.088626,42.556248 -309.538246,42.327473 -309.860718,49.822543"/>
    <poly id="262406626" type="building.yes" color="255,230,230" fill="1" layer="-1.00" shape="-314.542767,59.602493 -311.024713,59.759709 -310.638602,50.913928 -314.167444,50.756806 -314.542767,59.602493"/>
    <poly id="262406627" type="building.yes" color="255,230,230" fill="1" layer="-1.00" shape="-223.936460,51.402612 -220.418505,51.548774 -220.032361,42.702999 -223.550318,42.556836 -223.936460,51.402612"/>
    <poly id="262406628" type="building.yes" color="255,230,230" fill="1" layer="-1.00" shape="-338.949662,99.425169 -332.938863,99.682204 -332.545089,90.482215 -338.555890,90.225180 -338.949662,99.425169"/>
    <poly id="262406629" type="building.yes" color="255,230,230" fill="1" layer="-1.00" shape="-202.430729,102.497288 -197.499071,102.708502 -197.105539,93.475324 -202.037199,93.264111 -202.430729,102.497288"/>
    <poly id="262406630" type="building.yes" color="255,230,230" fill="1" layer="-1.00" shape="-295.593892,100.825854 -292.324128,100.963119 -292.083659,95.184127 -295.353424,95.046861 -295.593892,100.825854"/>
    <poly id="262406631" type="building.yes" color="255,230,230" fill="1" layer="-1.00" shape="-313.831811,36.167790 -310.313851,36.313940 -309.927641,27.479225 -313.456486,27.322104 -313.831811,36.167790"/>
    <poly id="262406632" type="building.yes" color="255,230,230" fill="1" layer="-1.00" shape="-282.634494,34.975072 -278.555441,35.138430 -278.287468,28.805857 -282.366619,28.631433 -282.634494,34.975072"/>
    <poly id="262406633" type="building.yes" color="255,230,230" fill="1" layer="-1.00" shape="-256.999897,36.642242 -253.481841,36.799466 -253.106495,27.953784 -256.624455,27.807625 -256.999897,36.642242"/>
    <poly id="262406634" type="building.yes" color="255,230,230" fill="1" layer="-1.00" shape="-306.656956,59.632786 -303.138999,59.778937 -302.752886,50.933157 -306.270844,50.787006 -306.656956,59.632786"/>
    <poly id="262406635" type="building.yes" color="255,230,230" fill="1" layer="-1.00" shape="-219.258417,102.556588 -216.366376,102.675049 -216.178359,98.290939 -219.070400,98.172479 -219.258417,102.556588"/>
    <poly id="262406636" type="building.yes" color="255,230,230" fill="1" layer="-1.00" shape="-286.843087,93.721519 -284.415057,93.821916 -284.299923,90.965666 -286.717263,90.854108 -286.843087,93.721519"/>
    <poly id="262406637" type="building.yes" color="255,230,230" fill="1" layer="-1.00" shape="-320.123462,109.507563 -312.634238,109.829075 -312.328675,102.865360 -319.817804,102.554914 -320.123462,109.507563"/>
    <poly id="262406638" type="building.yes" color="255,230,230" fill="1" layer="-1.00" shape="-196.960134,37.575585 -193.442177,37.721751 -193.056023,28.875978 -196.573981,28.729811 -196.960134,37.575585"/>
    <poly id="262406639" type="building.yes" color="255,230,230" fill="1" layer="-1.00" shape="-303.158405,50.206310 -299.640350,50.363528 -299.265021,41.517842 -302.782981,41.371691 -303.158405,50.206310"/>
    <poly id="262406640" type="building.yes" color="255,230,230" fill="1" layer="-1.00" shape="-319.280727,101.067239 -312.136862,101.369654 -311.877159,95.324888 -319.021025,95.022473 -319.280727,101.067239"/>
    <poly id="262406641" type="building.yes" color="255,230,230" fill="1" layer="-1.00" shape="-232.878083,51.525437 -229.360127,51.671598 -228.973987,42.825822 -232.491945,42.679661 -232.878083,51.525437"/>
    <poly id="262406642" type="building.yes" color="255,230,230" fill="1" layer="-1.00" shape="-278.317794,59.726807 -276.019199,59.828343 -275.669221,51.779692 -277.978603,51.678251 -278.317794,59.726807"/>
    <poly id="262406643" type="building.yes" color="255,230,230" fill="1" layer="-1.00" shape="-192.467733,61.462567 -188.949779,61.608734 -188.563626,52.762960 -192.081580,52.616793 -192.467733,61.462567"/>
    <poly id="262406644" type="building.yes" color="255,230,230" fill="1" layer="-1.00" shape="-317.756741,36.357222 -314.238781,36.503372 -313.852670,27.657590 -317.381418,27.511535 -317.756741,36.357222"/>
    <poly id="262406645" type="building.yes" color="255,230,230" fill="1" layer="-1.00" shape="-303.202873,108.971504 -298.508613,109.173717 -298.259109,103.195443 -302.942584,102.993135 -303.202873,108.971504"/>
    <poly id="262406646" type="building.yes" color="255,230,230" fill="1" layer="-1.00" shape="-278.976382,101.399158 -276.494421,101.499082 -276.152898,93.716109 -278.634957,93.605119 -278.976382,101.399158"/>
    <poly id="262406647" type="building.yes" color="255,230,230" fill="1" layer="-1.00" shape="-227.106217,101.939394 -224.991094,102.031479 -224.883434,99.551567 -226.998557,99.459482 -227.106217,101.939394"/>
    <poly id="262406648" type="building.yes" color="255,230,230" fill="1" layer="-1.00" shape="-220.399704,37.726161 -216.881746,37.872324 -216.495601,29.026549 -220.024346,28.880480 -220.399704,37.726161"/>
    <poly id="262406649" type="building.yes" color="255,230,230" fill="1" layer="-1.00" shape="-212.488057,61.572037 -208.959316,61.718106 -208.583956,52.872426 -212.101912,52.726262 -212.488057,61.572037"/>
    <poly id="262406650" type="building.yes" color="255,230,230" fill="1" layer="-1.00" shape="-267.235922,101.838260 -264.203558,101.966549 -264.050721,98.490226 -267.083183,98.350871 -267.235922,101.838260"/>
    <poly id="262406651" type="building.yes" color="255,230,230" fill="1" layer="-1.00" shape="-263.245826,96.789930 -260.353686,96.919452 -260.201335,93.387799 -263.093378,93.269344 -263.245826,96.789930"/>
    <poly id="262406652" type="building.yes" color="255,230,230" fill="1" layer="-1.00" shape="-216.062361,37.820858 -212.544403,37.967022 -212.158159,29.132314 -215.676215,28.975083 -216.062361,37.820858"/>
    <poly id="262406653" type="building.yes" color="255,230,230" fill="1" layer="-1.00" shape="-190.502769,51.828248 -186.984717,51.985481 -186.598562,43.139708 -190.127304,42.993635 -190.502769,51.828248"/>
    <poly id="262406654" type="building.yes" color="255,230,230" fill="1" layer="-1.00" shape="-251.756126,50.274750 -245.432317,50.551191 -245.127899,43.454688 -251.451613,43.189313 -251.756126,50.274750"/>
    <poly id="262406655" type="building.yes" color="255,230,230" fill="1" layer="-1.00" shape="-296.240560,35.836119 -292.722503,35.993337 -292.347171,27.147652 -295.865132,27.001500 -296.240560,35.836119"/>
    <poly id="262406656" type="building.yes" color="255,230,230" fill="1" layer="-1.00" shape="-347.739166,81.264313 -340.433399,81.576364 -340.138824,74.590611 -347.433806,74.278465 -347.739166,81.264313"/>
    <poly id="262406657" type="building.yes" color="255,230,230" fill="1" layer="-1.00" shape="-204.084094,35.856408 -197.641729,36.120753 -197.391517,30.219945 -203.823194,29.944439 -204.084094,35.856408"/>
    <poly id="262406658" type="building.yes" color="255,230,230" fill="1" layer="-1.00" shape="-325.887533,73.502530 -320.049410,73.750019 -319.718977,65.933941 -325.546315,65.686356 -325.887533,73.502530"/>
    <poly id="262406659" type="building.yes" color="255,230,230" fill="1" layer="-1.00" shape="-349.723878,113.187404 -343.583644,113.443298 -343.135370,103.080814 -349.275703,102.813853 -349.723878,113.187404"/>
    <poly id="262406660" type="building.yes" color="255,230,230" fill="1" layer="-1.00" shape="-307.132353,84.094632 -301.229418,84.352623 -300.870705,76.071491 -306.773642,75.813500 -307.132353,84.094632"/>
    <poly id="262406661" type="building.yes" color="255,230,230" fill="1" layer="-1.00" shape="-331.991364,34.434974 -323.066926,34.810272 -322.781185,28.045935 -331.705722,27.659570 -331.991364,34.434974"/>
    <poly id="262406662" type="building.yes" color="255,230,230" fill="1" layer="-1.00" shape="-240.689217,61.222193 -237.171263,61.368353 -236.785029,52.533642 -240.303082,52.376416 -240.689217,61.222193"/>
    <poly id="262406664" type="building.yes" color="255,230,230" fill="1" layer="-1.00" shape="-220.709411,61.411860 -217.191457,61.558023 -216.816002,52.723408 -220.334055,52.566179 -220.709411,61.411860"/>
    <poly id="262406666" type="building.yes" color="255,230,230" fill="1" layer="-1.00" shape="-300.319516,35.683830 -296.801556,35.829982 -296.415439,26.984202 -299.944187,26.838145 -300.319516,35.683830"/>
    <poly id="262406668" type="building.yes" color="255,230,230" fill="1" layer="-1.00" shape="-239.960240,95.080238 -236.819914,95.218649 -236.614896,90.314249 -239.755126,90.186904 -239.960240,95.080238"/>