<?xml version="1.0" encoding="UTF-8"?>

<!-- generated on 2025-10-02 19:16:45.625285 by randomTrips.py v1_24_0+0000-b72eb3fabc8
<configuration>
    <net-file value="osm.net.xml.gz"/>
    <output-trip-file value="osm.motorcycle.trips.xml"/>
    <route-file value="osm.motorcycle.rou.xml"/>
    <prefix value="motorcycle"/>
    <trip-attributes value="departLane=&quot;best&quot;"/>
    <fringe-start-attributes value="departSpeed=&quot;max&quot;"/>
    <vehicle-class value="motorcycle"/>
    <fringe-factor value="2"/>
    <edge-permission value="motorcycle"/>
    <via-edge-types value="highway.motorway,highway.motorway_link,highway.trunk_link,highway.primary_link,highway.secondary_link,highway.tertiary_link"/>
    <seed value="43"/>
    <max-distance value="1200.0"/>
    <remove-loops value="True"/>
    <insertion-density value="4.0"/>
</configuration>
-->

<!-- generated on 2025-10-02 19:16:45 by Eclipse SUMO duarouter Version 1.24.0
<duarouterConfiguration xmlns:xsi="http://www.w3.org/2001/XMLSchema-instance" xsi:noNamespaceSchemaLocation="http://sumo.dlr.de/xsd/duarouterConfiguration.xsd">

    <input>
        <net-file value="osm.net.xml.gz"/>
        <route-files value="osm.motorcycle.trips.xml"/>
    </input>

    <output>
        <output-file value="osm.motorcycle.rou.xml"/>
        <alternatives-output value="NUL"/>
    </output>

    <processing>
        <remove-loops value="true"/>
    </processing>

    <time>
        <begin value="0.0"/>
        <end value="3600.0"/>
    </time>

    <report>
        <no-warnings value="true"/>
        <ignore-errors value="true"/>
        <no-step-log value="true"/>
    </report>

</duarouterConfiguration>
-->

<routes xmlns:xsi="http://www.w3.org/2001/XMLSchema-instance" xsi:noNamespaceSchemaLocation="http://sumo.dlr.de/xsd/routes_file.xsd">
    <vType id="motorcycle_motorcycle" vClass="motorcycle"/>
    <vehicle id="motorcycle0" type="motorcycle_motorcycle" depart="0.00" departLane="best" departSpeed="max">
        <route edges="-1392084250 1326404883"/>
    </vehicle>
    <vehicle id="motorcycle1" type="motorcycle_motorcycle" depart="213.70" departLane="best">
        <route edges="555020953#0 653727191#0"/>
    </vehicle>
    <vehicle id="motorcycle2" type="motorcycle_motorcycle" depart="427.40" departLane="best" departSpeed="max">
        <route edges="1054315844#0 555020953#0 1326404883"/>
    </vehicle>
    <vehicle id="motorcycle3" type="motorcycle_motorcycle" depart="641.09" departLane="best" departSpeed="max">
        <route edges="-1392084250 1054315845#0"/>
    </vehicle>
    <vehicle id="motorcycle4" type="motorcycle_motorcycle" depart="854.79" departLane="best" departSpeed="max">
        <route edges="1054315844#0 555020953#0 653727191#0"/>
    </vehicle>
    <vehicle id="motorcycle5" type="motorcycle_motorcycle" depart="1068.49" departLane="best" departSpeed="max">
        <route edges="1392084244#0 712245744#0 653727191#0"/>
    </vehicle>
    <vehicle id="motorcycle6" type="motorcycle_motorcycle" depart="1282.19" departLane="best" departSpeed="max">
        <route edges="564298145 653727191#0"/>
    </vehicle>
    <vehicle id="motorcycle7" type="motorcycle_motorcycle" depart="1495.89" departLane="best" departSpeed="max">
        <route edges="1392084244#0 712245744#0 1326404883"/>
    </vehicle>
    <vehicle id="motorcycle8" type="motorcycle_motorcycle" depart="1709.58" departLane="best" departSpeed="max">
        <route edges="1392084244#0 712245744#0 1326404883"/>
    </vehicle>
    <vehicle id="motorcycle9" type="motorcycle_motorcycle" depart="1923.28" departLane="best" departSpeed="max">
        <route edges="564298145 1054315845#0"/>
    </vehicle>
    <vehicle id="motorcycle10" type="motorcycle_motorcycle" depart="2136.98" departLane="best" departSpeed="max">
        <route edges="1392084244#0 712245744#0"/>
    </vehicle>
    <vehicle id="motorcycle11" type="motorcycle_motorcycle" depart="2350.68" departLane="best" departSpeed="max">
        <route edges="1392084244#0 712245744#0 653727191#0"/>
    </vehicle>
    <vehicle id="motorcycle12" type="motorcycle_motorcycle" depart="2564.38" departLane="best" departSpeed="max">
        <route edges="564298145 1054315845#0"/>
    </vehicle>
    <vehicle id="motorcycle13" type="motorcycle_motorcycle" depart="2778.07" departLane="best" departSpeed="max">
        <route edges="564298145 -712245744#1 -564298126#9"/>
    </vehicle>
    <vehicle id="motorcycle14" type="motorcycle_motorcycle" depart="2991.77" departLane="best" departSpeed="max">
        <route edges="1392084244#0 712245744#0 1054315845#0"/>
    </vehicle>
    <vehicle id="motorcycle15" type="motorcycle_motorcycle" depart="3205.47" departLane="best">
        <route edges="712245744#0 1326404883"/>
    </vehicle>
    <vehicle id="motorcycle16" type="motorcycle_motorcycle" depart="3419.17" departLane="best" departSpeed="max">
        <route edges="-1392084250 1326404883"/>
    </vehicle>
</routes>
