<?xml version="1.0" encoding="UTF-8"?>

<!-- generated on 2025-10-20 17:24:12.822985 by randomTrips.py v1_24_0+0000-b72eb3fabc8
<configuration>
    <net-file value="osm.net.xml.gz"/>
    <output-trip-file value="osm.truck.trips.xml"/>
    <route-file value="osm.truck.rou.xml"/>
    <prefix value="truck"/>
    <vehicle-class value="truck"/>
    <fringe-factor value="10"/>
    <seed value="45"/>
    <min-distance value="200.0"/>
    <insertion-density value="6.0"/>
</configuration>
-->

<!-- generated on 2025-10-20 17:24:12 by Eclipse SUMO duarouter Version 1.24.0
<duarouterConfiguration xmlns:xsi="http://www.w3.org/2001/XMLSchema-instance" xsi:noNamespaceSchemaLocation="http://sumo.dlr.de/xsd/duarouterConfiguration.xsd">

    <input>
        <net-file value="osm.net.xml.gz"/>
        <route-files value="osm.truck.trips.xml"/>
    </input>

    <output>
        <output-file value="osm.truck.rou.xml"/>
        <alternatives-output value="NUL"/>
    </output>

    <time>
        <begin value="0.0"/>
        <end value="3600.0"/>
    </time>

    <report>
        <no-warnings value="true"/>
        <ignore-errors value="true"/>
        <no-step-log value="true"/>
    </report>

</duarouterConfiguration>
-->

<routes xmlns:xsi="http://www.w3.org/2001/XMLSchema-instance" xsi:noNamespaceSchemaLocation="http://sumo.dlr.de/xsd/routes_file.xsd">
    <vType id="truck_truck" vClass="truck"/>
    <vehicle id="truck0" type="truck_truck" depart="0.00">
        <route edges="-1392084250 1054315845#0"/>
    </vehicle>
    <vehicle id="truck1" type="truck_truck" depart="142.47">
        <route edges="-1392084250 -712245744#1 -564298126#9"/>
    </vehicle>
    <vehicle id="truck2" type="truck_truck" depart="284.93">
        <route edges="1054315844#0 555020953#0"/>
    </vehicle>
    <vehicle id="truck3" type="truck_truck" depart="427.40">
        <route edges="-1392084250 1054315845#0"/>
    </vehicle>
    <vehicle id="truck4" type="truck_truck" depart="569.86">
        <route edges="1392084244#0 712245744#0 653727191#0"/>
    </vehicle>
    <vehicle id="truck5" type="truck_truck" depart="712.33">
        <route edges="-1392084250 -712245744#1"/>
    </vehicle>
    <vehicle id="truck6" type="truck_truck" depart="854.79">
        <route edges="564298145 653727191#0"/>
    </vehicle>
    <vehicle id="truck7" type="truck_truck" depart="997.26">
        <route edges="-1392084250 -712245744#1 -564298126#9"/>
    </vehicle>
    <vehicle id="truck8" type="truck_truck" depart="1139.72">
        <route edges="564298145 1054315845#0"/>
    </vehicle>
    <vehicle id="truck9" type="truck_truck" depart="1282.19">
        <route edges="1054315844#0 555020953#0 653727191#0"/>
    </vehicle>
    <vehicle id="truck10" type="truck_truck" depart="1424.65">
        <route edges="564298145 653727191#0"/>
    </vehicle>
    <vehicle id="truck11" type="truck_truck" depart="1567.12">
        <route edges="1054315844#0 555020953#0 1326404883"/>
    </vehicle>
    <vehicle id="truck12" type="truck_truck" depart="1709.58">
        <route edges="1054315844#0 555020953#0 653727191#0"/>
    </vehicle>
    <vehicle id="truck13" type="truck_truck" depart="1852.05">
        <route edges="-1392084250 1054315845#0"/>
    </vehicle>
    <vehicle id="truck14" type="truck_truck" depart="1994.52">
        <route edges="-1392084250 1054315845#0"/>
    </vehicle>
    <vehicle id="truck15" type="truck_truck" depart="2136.98">
        <route edges="1392084244#0 712245744#0 1326404883"/>
    </vehicle>
    <vehicle id="truck16" type="truck_truck" depart="2279.45">
        <route edges="1054315844#0 555020953#0 653727191#0"/>
    </vehicle>
    <vehicle id="truck17" type="truck_truck" depart="2421.91">
        <route edges="1392084244#0 712245744#0 1326404883"/>
    </vehicle>
    <vehicle id="truck18" type="truck_truck" depart="2564.38">
        <route edges="1392084244#0 712245744#0 1326404883"/>
    </vehicle>
    <vehicle id="truck19" type="truck_truck" depart="2706.84">
        <route edges="-1392084250 -712245744#1 -564298126#9"/>
    </vehicle>
    <vehicle id="truck20" type="truck_truck" depart="2849.31">
        <route edges="564298145 653727191#0"/>
    </vehicle>
    <vehicle id="truck21" type="truck_truck" depart="2991.77">
        <route edges="564298145 653727191#0"/>
    </vehicle>
    <vehicle id="truck22" type="truck_truck" depart="3134.24">
        <route edges="-1392084250 -712245744#1 -564298126#9"/>
    </vehicle>
    <vehicle id="truck23" type="truck_truck" depart="3276.70">
        <route edges="1054315844#0 555020953#0 1326404883"/>
    </vehicle>
    <vehicle id="truck24" type="truck_truck" depart="3419.17">
        <route edges="564298145 1054315845#0"/>
    </vehicle>
    <vehicle id="truck25" type="truck_truck" depart="3561.63">
        <route edges="564298145 1054315845#0"/>
    </vehicle>
</routes>
