<?xml version="1.0" encoding="UTF-8"?>

<!-- generated on 2025-10-20 17:24:07.383777 by randomTrips.py v1_24_0+0000-b72eb3fabc8
<configuration>
    <net-file value="osm.net.xml.gz"/>
    <output-trip-file value="osm.bus.trips.xml"/>
    <route-file value="osm.bus.rou.xml"/>
    <prefix value="bus"/>
    <vehicle-class value="bus"/>
    <fringe-factor value="10"/>
    <min-distance value="200.0"/>
    <insertion-density value="4.0"/>
</configuration>
-->

<!-- generated on 2025-10-20 17:24:07 by Eclipse SUMO duarouter Version 1.24.0
<duarouterConfiguration xmlns:xsi="http://www.w3.org/2001/XMLSchema-instance" xsi:noNamespaceSchemaLocation="http://sumo.dlr.de/xsd/duarouterConfiguration.xsd">

    <input>
        <net-file value="osm.net.xml.gz"/>
        <route-files value="osm.bus.trips.xml"/>
    </input>

    <output>
        <output-file value="osm.bus.rou.xml"/>
        <alternatives-output value="NUL"/>
    </output>

    <time>
        <begin value="0.0"/>
        <end value="3600.0"/>
    </time>

    <report>
        <no-warnings value="true"/>
        <ignore-errors value="true"/>
        <no-step-log value="true"/>
    </report>

</duarouterConfiguration>
-->

<routes xmlns:xsi="http://www.w3.org/2001/XMLSchema-instance" xsi:noNamespaceSchemaLocation="http://sumo.dlr.de/xsd/routes_file.xsd">
    <vType id="bus_bus" vClass="bus"/>
    <vehicle id="bus0" type="bus_bus" depart="0.00">
        <route edges="555020953#0 1326404883"/>
    </vehicle>
    <vehicle id="bus1" type="bus_bus" depart="213.70">
        <route edges="564298145 -712245744#1 -564298126#9"/>
    </vehicle>
    <vehicle id="bus2" type="bus_bus" depart="427.40">
        <route edges="-1392084250 -712245744#1 -564298126#9"/>
    </vehicle>
    <vehicle id="bus3" type="bus_bus" depart="641.09">
        <route edges="1392084244#0 712245744#0 1326404883"/>
    </vehicle>
    <vehicle id="bus4" type="bus_bus" depart="854.79">
        <route edges="564298145 -712245744#1 -564298126#9"/>
    </vehicle>
    <vehicle id="bus5" type="bus_bus" depart="1068.49">
        <route edges="564298145 1054315845#0"/>
    </vehicle>
    <vehicle id="bus6" type="bus_bus" depart="1282.19">
        <route edges="-1392084250 -712245744#1 -564298126#9"/>
    </vehicle>
    <vehicle id="bus7" type="bus_bus" depart="1495.89">
        <route edges="1392084244#0 712245744#0 653727191#0"/>
    </vehicle>
    <vehicle id="bus8" type="bus_bus" depart="1709.58">
        <route edges="1054315844#0 555020953#0 1326404883"/>
    </vehicle>
    <vehicle id="bus9" type="bus_bus" depart="1923.28">
        <route edges="-1392084250 1054315845#0"/>
    </vehicle>
    <vehicle id="bus10" type="bus_bus" depart="2136.98">
        <route edges="-1392084250 -712245744#1"/>
    </vehicle>
    <vehicle id="bus11" type="bus_bus" depart="2350.68">
        <route edges="-1392084250 1054315845#0"/>
    </vehicle>
    <vehicle id="bus12" type="bus_bus" depart="2564.38">
        <route edges="1054315844#0 555020953#0 653727191#0"/>
    </vehicle>
    <vehicle id="bus13" type="bus_bus" depart="2778.07">
        <route edges="1392084244#0 712245744#0 1326404883"/>
    </vehicle>
    <vehicle id="bus14" type="bus_bus" depart="2991.77">
        <route edges="-1392084250 1054315845#0"/>
    </vehicle>
    <vehicle id="bus15" type="bus_bus" depart="3205.47">
        <route edges="712245744#0 1326404883"/>
    </vehicle>
    <vehicle id="bus16" type="bus_bus" depart="3419.17">
        <route edges="1392084244#0 712245744#0 1326404883"/>
    </vehicle>
</routes>
