<?xml version="1.0" encoding="UTF-8"?>

<!-- generated on 2025-09-02 21:34:40.861684 by osmWebWizard.py v1_24_0+0000-b72eb3fabc8
<configuration>
    <net-file value="C:\Users\kgaqu\OneDrive\Documents\4th Year\Capstone 2\v10\osm_importer\osm_scenarios\2025-09-02-21-34-32\osm.net.xml.gz"/>
    <output-trip-file value="C:\Users\kgaqu\OneDrive\Documents\4th Year\Capstone 2\v10\osm_importer\osm_scenarios\2025-09-02-21-34-32\osm.truck.trips.xml"/>
    <route-file value="C:\Users\kgaqu\OneDrive\Documents\4th Year\Capstone 2\v10\osm_importer\osm_scenarios\2025-09-02-21-34-32\osm.truck.rou.xml"/>
    <prefix value="truck"/>
    <trip-attributes value="departLane=&quot;best&quot;"/>
    <fringe-start-attributes value="departSpeed=&quot;max&quot;"/>
    <vehicle-class value="truck"/>
    <fringe-factor value="5"/>
    <edge-permission value="truck"/>
    <via-edge-types value="highway.motorway,highway.motorway_link,highway.trunk_link,highway.primary_link,highway.secondary_link,highway.tertiary_link"/>
    <seed value="47"/>
    <min-distance value="600.0"/>
    <min-distance.fringe value="10.0"/>
    <remove-loops value="True"/>
    <insertion-density value="8.0"/>
</configuration>
-->

<routes xmlns:xsi="http://www.w3.org/2001/XMLSchema-instance" xsi:noNamespaceSchemaLocation="http://sumo.dlr.de/xsd/routes_file.xsd">
    <vType id="truck_truck" vClass="truck"/>
    <trip id="truck0" depart="0.00" from="1054315844#0" to="1326404883" departLane="best" type="truck_truck" departSpeed="max"/>
    <trip id="truck1" depart="45.79" from="-560538898#1" to="1054315845#0" departLane="best" type="truck_truck" departSpeed="max"/>
    <trip id="truck2" depart="91.58" from="-560538898#1" to="-564298126#9" departLane="best" type="truck_truck" departSpeed="max"/>
    <trip id="truck3" depart="137.37" from="1054315844#0" to="653727192" departLane="best" type="truck_truck" departSpeed="max"/>
    <trip id="truck4" depart="183.16" from="-560538898#1" to="1054315845#0" departLane="best" type="truck_truck" departSpeed="max"/>
    <trip id="truck5" depart="228.95" from="555020953#0" to="1054315845#0" departLane="best" type="truck_truck"/>
    <trip id="truck6" depart="274.73" from="1054315844#0" to="657808646" departLane="best" type="truck_truck" departSpeed="max"/>
    <trip id="truck7" depart="320.52" from="1054315844#0" to="653727192" departLane="best" type="truck_truck" departSpeed="max"/>
    <trip id="truck8" depart="366.31" from="1392084253" to="657808646" departLane="best" type="truck_truck" departSpeed="max"/>
    <trip id="truck9" depart="412.10" from="-560538898#1" to="1054315845#0" departLane="best" type="truck_truck" departSpeed="max"/>
    <trip id="truck10" depart="457.89" from="1054315844#0" to="653727192" departLane="best" type="truck_truck" departSpeed="max"/>
    <trip id="truck11" depart="503.68" from="1392084253" to="653727192" departLane="best" type="truck_truck" departSpeed="max"/>
    <trip id="truck12" depart="549.47" from="1392084253" to="653727192" departLane="best" type="truck_truck" departSpeed="max"/>
    <trip id="truck13" depart="595.26" from="564298145#0" to="1054315845#0" departLane="best" type="truck_truck" departSpeed="max"/>
    <trip id="truck14" depart="641.05" from="-560538898#1" to="-564298126#9" departLane="best" type="truck_truck" departSpeed="max"/>
    <trip id="truck15" depart="686.84" from="564298145#0" to="1054315845#0" departLane="best" type="truck_truck" departSpeed="max"/>
    <trip id="truck16" depart="732.63" from="-560538898#1" to="-564298126#9" departLane="best" type="truck_truck" departSpeed="max"/>
    <trip id="truck17" depart="778.41" from="-560538898#1" to="-564298126#9" departLane="best" type="truck_truck" departSpeed="max"/>
    <trip id="truck18" depart="824.20" from="-560538898#1" to="-564298126#9" departLane="best" type="truck_truck" departSpeed="max"/>
    <trip id="truck19" depart="869.99" from="1054315844#0" to="657808646" departLane="best" type="truck_truck" departSpeed="max"/>
    <trip id="truck20" depart="915.78" from="-560538898#1" to="-564298126#9" departLane="best" type="truck_truck" departSpeed="max"/>
    <trip id="truck21" depart="961.57" from="-560538898#1" to="-564298126#9" departLane="best" type="truck_truck" departSpeed="max"/>
    <trip id="truck22" depart="1007.36" from="1392084253" to="657808646" departLane="best" type="truck_truck" departSpeed="max"/>
    <trip id="truck23" depart="1053.15" from="1054315844#0" to="657808646" departLane="best" type="truck_truck" departSpeed="max"/>
    <trip id="truck24" depart="1098.94" from="1392084253" to="657808646" departLane="best" type="truck_truck" departSpeed="max"/>
    <trip id="truck25" depart="1144.73" from="564298145#0" to="-564298126#9" departLane="best" type="truck_truck" departSpeed="max"/>
    <trip id="truck26" depart="1190.52" from="-560538898#1" to="-564298126#9" departLane="best" type="truck_truck" departSpeed="max"/>
    <trip id="truck27" depart="1236.31" from="1054315844#0" to="653727191#0" departLane="best" type="truck_truck" departSpeed="max"/>
    <trip id="truck28" depart="1282.09" from="1054315844#0" to="555020953#0" departLane="best" type="truck_truck" departSpeed="max"/>
    <trip id="truck29" depart="1327.88" from="1054315844#0" to="653727192" departLane="best" type="truck_truck" departSpeed="max"/>
    <trip id="truck30" depart="1373.67" from="564298145#0" to="1054315845#0" departLane="best" type="truck_truck" departSpeed="max"/>
    <trip id="truck31" depart="1419.46" from="1054315844#0" to="657808646" departLane="best" type="truck_truck" departSpeed="max"/>
    <trip id="truck32" depart="1465.25" from="1054315844#0" to="-653727191#1" departLane="best" type="truck_truck" departSpeed="max"/>
    <trip id="truck33" depart="1511.04" from="1054315844#0" to="653727192" departLane="best" type="truck_truck" departSpeed="max"/>
    <trip id="truck34" depart="1556.83" from="1392084253" to="653727192" departLane="best" type="truck_truck" departSpeed="max"/>
    <trip id="truck35" depart="1602.62" from="564298145#0" to="1054315845#0" departLane="best" type="truck_truck" departSpeed="max"/>
    <trip id="truck36" depart="1648.41" from="1054315844#0" to="712245744#0" departLane="best" type="truck_truck" departSpeed="max"/>
    <trip id="truck37" depart="1694.20" from="1054315844#0" to="555020953#0" departLane="best" type="truck_truck" departSpeed="max"/>
    <trip id="truck38" depart="1739.99" from="1392084253" to="653727192" departLane="best" type="truck_truck" departSpeed="max"/>
    <trip id="truck39" depart="1785.77" from="1054315844#0" to="-712245744#1" departLane="best" type="truck_truck" departSpeed="max"/>
    <trip id="truck40" depart="1831.56" from="-560538898#1" to="-564298126#9" departLane="best" type="truck_truck" departSpeed="max"/>
    <trip id="truck41" depart="1877.35" from="-560538898#1" to="1054315845#0" departLane="best" type="truck_truck" departSpeed="max"/>
    <trip id="truck42" depart="1923.14" from="1054315844#0" to="653727192" departLane="best" type="truck_truck" departSpeed="max"/>
    <trip id="truck43" depart="1968.93" from="1392084253" to="653727192" departLane="best" type="truck_truck" departSpeed="max"/>
    <trip id="truck44" depart="2014.72" from="564298145#0" to="1054315845#0" departLane="best" type="truck_truck" departSpeed="max"/>
    <trip id="truck45" depart="2060.51" from="564298145#0" to="-564298126#9" departLane="best" type="truck_truck" departSpeed="max"/>
    <trip id="truck46" depart="2106.30" from="1392084253" to="657808646" departLane="best" type="truck_truck" departSpeed="max"/>
    <trip id="truck47" depart="2152.09" from="564298145#0" to="1054315845#0" departLane="best" type="truck_truck" departSpeed="max"/>
    <trip id="truck48" depart="2197.88" from="653727191#0" to="1054315845#0" departLane="best" type="truck_truck"/>
    <trip id="truck49" depart="2243.67" from="564298145#0" to="-564298126#9" departLane="best" type="truck_truck" departSpeed="max"/>
    <trip id="truck50" depart="2289.45" from="1392084253" to="653727192" departLane="best" type="truck_truck" departSpeed="max"/>
    <trip id="truck51" depart="2335.24" from="564298145#0" to="1054315845#0" departLane="best" type="truck_truck" departSpeed="max"/>
    <trip id="truck52" depart="2381.03" from="1392084253" to="657808646" departLane="best" type="truck_truck" departSpeed="max"/>
    <trip id="truck53" depart="2426.82" from="564298145#0" to="-564298126#9" departLane="best" type="truck_truck" departSpeed="max"/>
    <trip id="truck54" depart="2472.61" from="564298145#0" to="-564298126#9" departLane="best" type="truck_truck" departSpeed="max"/>
    <trip id="truck55" depart="2518.40" from="-560538898#1" to="1054315845#0" departLane="best" type="truck_truck" departSpeed="max"/>
    <trip id="truck56" depart="2564.19" from="1054315844#0" to="712245744#0" departLane="best" type="truck_truck" departSpeed="max"/>
    <trip id="truck57" depart="2609.98" from="1054315844#0" to="653727192" departLane="best" type="truck_truck" departSpeed="max"/>
    <trip id="truck58" depart="2655.77" from="-560538898#1" to="1054315845#0" departLane="best" type="truck_truck" departSpeed="max"/>
    <trip id="truck59" depart="2701.56" from="-560538898#1" to="1054315845#0" departLane="best" type="truck_truck" departSpeed="max"/>
    <trip id="truck60" depart="2747.34" from="1392084253" to="657808646" departLane="best" type="truck_truck" departSpeed="max"/>
    <trip id="truck61" depart="2793.13" from="564298145#0" to="-564298126#9" departLane="best" type="truck_truck" departSpeed="max"/>
    <trip id="truck62" depart="2838.92" from="-560538898#1" to="1054315845#0" departLane="best" type="truck_truck" departSpeed="max"/>
    <trip id="truck63" depart="2884.71" from="564298145#0" to="-564298126#9" departLane="best" type="truck_truck" departSpeed="max"/>
    <trip id="truck64" depart="2930.50" from="1392084253" to="657808646" departLane="best" type="truck_truck" departSpeed="max"/>
    <trip id="truck65" depart="2976.29" from="1392084253" to="653727192" departLane="best" type="truck_truck" departSpeed="max"/>
    <trip id="truck66" depart="3022.08" from="1392084253" to="657808646" departLane="best" type="truck_truck" departSpeed="max"/>
    <trip id="truck67" depart="3067.87" from="653727191#0" to="1054315845#0" departLane="best" type="truck_truck"/>
    <trip id="truck68" depart="3113.66" from="1392084253" to="657808646" departLane="best" type="truck_truck" departSpeed="max"/>
    <trip id="truck69" depart="3159.45" from="-560538898#1" to="1054315845#0" departLane="best" type="truck_truck" departSpeed="max"/>
    <trip id="truck70" depart="3205.24" from="1054315844#0" to="653727192" departLane="best" type="truck_truck" departSpeed="max"/>
    <trip id="truck71" depart="3251.02" from="1054315844#0" to="657808646" departLane="best" type="truck_truck" departSpeed="max"/>
    <trip id="truck72" depart="3296.81" from="1392084253" to="653727192" departLane="best" type="truck_truck" departSpeed="max"/>
    <trip id="truck73" depart="3342.60" from="-560538898#1" to="-564298126#9" departLane="best" type="truck_truck" departSpeed="max"/>
    <trip id="truck74" depart="3388.39" from="-653727191#1" to="1054315845#0" departLane="best" type="truck_truck"/>
    <trip id="truck75" depart="3434.18" from="1054315844#0" to="657808646" departLane="best" type="truck_truck" departSpeed="max"/>
    <trip id="truck76" depart="3479.97" from="1392084253" to="564298119#0" departLane="best" type="truck_truck" departSpeed="max"/>
    <trip id="truck77" depart="3525.76" from="1054315844#0" to="657808646" departLane="best" type="truck_truck" departSpeed="max"/>
    <trip id="truck78" depart="3571.55" from="1054315844#0" to="657808646" departLane="best" type="truck_truck" departSpeed="max"/>
</routes>
