<?xml version="1.0" encoding="UTF-8"?>

<!-- generated on 2025-08-30 20:07:02.561941 by randomTrips.py v1_24_0+0000-b72eb3fabc8
<configuration>
    <net-file value="osm.net.xml.gz"/>
    <output-trip-file value="osm.passenger.trips.xml"/>
    <route-file value="osm.passenger.rou.xml"/>
    <prefix value="veh"/>
    <trip-attributes value="departLane=&quot;best&quot;"/>
    <fringe-start-attributes value="departSpeed=&quot;max&quot;"/>
    <vehicle-class value="passenger"/>
    <lanes value="True"/>
    <fringe-factor value="5"/>
    <allow-fringe.min-length value="1000.0"/>
    <edge-permission value="passenger"/>
    <via-edge-types value="highway.motorway,highway.motorway_link,highway.trunk_link,highway.primary_link,highway.secondary_link,highway.tertiary_link"/>
    <seed value="44"/>
    <min-distance value="300.0"/>
    <min-distance.fringe value="10.0"/>
    <remove-loops value="True"/>
    <insertion-density value="12.0"/>
</configuration>
-->

<routes xmlns:xsi="http://www.w3.org/2001/XMLSchema-instance" xsi:noNamespaceSchemaLocation="http://sumo.dlr.de/xsd/routes_file.xsd">
    <vType id="veh_passenger" vClass="passenger"/>
    <trip id="veh0" depart="0.00" from="-853618778#6" to="249396544#3" departLane="best" type="veh_passenger" departSpeed="max"/>
    <trip id="veh1" depart="16.51" from="564298145#0" to="-338477202#0" departLane="best" type="veh_passenger" departSpeed="max"/>
    <trip id="veh2" depart="33.03" from="-35260369#0" to="-1392084244#1" departLane="best" type="veh_passenger"/>
    <trip id="veh3" depart="49.54" from="-338477202#2" to="1392084244#0" departLane="best" type="veh_passenger" departSpeed="max"/>
    <trip id="veh4" depart="66.05" from="938252836" to="35260361#1" departLane="best" type="veh_passenger"/>
    <trip id="veh5" depart="82.57" from="35260360#2" to="-360438708" departLane="best" type="veh_passenger"/>
    <trip id="veh6" depart="99.08" from="-27258652#1" to="564298119#0" departLane="best" type="veh_passenger" departSpeed="max"/>
    <trip id="veh7" depart="115.59" from="29547797#0" to="-27258652#0" departLane="best" type="veh_passenger" departSpeed="max"/>
    <trip id="veh8" depart="132.11" from="-27258652#1" to="-249396544#2" departLane="best" type="veh_passenger" departSpeed="max"/>
    <trip id="veh9" depart="148.62" from="-1392084244#1" to="-853618778#4" departLane="best" type="veh_passenger"/>
    <trip id="veh10" depart="165.14" from="1217689481#0" to="653727192" departLane="best" type="veh_passenger" departSpeed="max"/>
    <trip id="veh11" depart="181.65" from="-35260374" to="-1392084253" departLane="best" type="veh_passenger" departSpeed="max"/>
    <trip id="veh12" depart="198.16" from="35260359#0" to="560538898#0" departLane="best" type="veh_passenger"/>
    <trip id="veh13" depart="214.68" from="-961323605#1" to="-1392084250" departLane="best" type="veh_passenger"/>
    <trip id="veh14" depart="231.19" from="35260368#0" to="35260374" departLane="best" type="veh_passenger" departSpeed="max"/>
    <trip id="veh15" depart="247.70" from="338477202#0" to="-360438708" departLane="best" type="veh_passenger" departSpeed="max"/>
    <trip id="veh16" depart="264.22" from="555020953#0" to="338477202#1" departLane="best" type="veh_passenger"/>
    <trip id="veh17" depart="280.73" from="-35260369#2" to="1054315845#0" departLane="best" type="veh_passenger"/>
    <trip id="veh18" depart="297.24" from="360438707" to="35260361#1" departLane="best" type="veh_passenger" departSpeed="max"/>
    <trip id="veh19" depart="313.76" from="-564298126#9" to="560538898#0" departLane="best" type="veh_passenger"/>
    <trip id="veh20" depart="330.27" from="-338477202#2" to="-35260368#0" departLane="best" type="veh_passenger" departSpeed="max"/>
    <trip id="veh21" depart="346.78" from="29547826" to="249396544#3" departLane="best" type="veh_passenger"/>
    <trip id="veh22" depart="363.30" from="-35260361#1" to="-27258652#0" departLane="best" type="veh_passenger" departSpeed="max"/>
    <trip id="veh23" depart="379.81" from="-560538898#1" to="564298119#0" departLane="best" type="veh_passenger" departSpeed="max"/>
    <trip id="veh24" depart="396.33" from="27258667" to="-1392084253" departLane="best" type="veh_passenger"/>
    <trip id="veh25" depart="412.84" from="29547797#0" to="-27258666" departLane="best" type="veh_passenger" departSpeed="max"/>
    <trip id="veh26" depart="429.35" from="-35260359#1" to="338477202#2" departLane="best" type="veh_passenger"/>
    <trip id="veh27" depart="445.87" from="564298145#0" to="29547816" departLane="best" type="veh_passenger" departSpeed="max"/>
    <trip id="veh28" depart="462.38" from="564298145#0" to="560538898#0" departLane="best" type="veh_passenger" departSpeed="max"/>
    <trip id="veh29" depart="478.89" from="-35260379#1" to="853618778#6" departLane="best" type="veh_passenger"/>
    <trip id="veh30" depart="495.41" from="-35260375" to="-1392084253" departLane="best" type="veh_passenger"/>
    <trip id="veh31" depart="511.92" from="1392084244#0" to="564298119#0" departLane="best" type="veh_passenger"/>
    <trip id="veh32" depart="528.43" from="27258652#0" to="27258652#1" departLane="best" type="veh_passenger" departSpeed="max"/>
    <trip id="veh33" depart="544.95" from="1217689481#0" to="-360438706#0" departLane="best" type="veh_passenger" departSpeed="max"/>
    <trip id="veh34" depart="561.46" from="-560538898#1" to="-894912572" departLane="best" type="veh_passenger" departSpeed="max"/>
    <trip id="veh35" depart="577.97" from="1392084253" to="853618778#4" departLane="best" type="veh_passenger" departSpeed="max"/>
    <trip id="veh36" depart="594.49" from="-27258652#1" to="-35260369#2" departLane="best" type="veh_passenger" departSpeed="max"/>
    <trip id="veh37" depart="611.00" from="-27258652#1" to="1054315845#0" departLane="best" type="veh_passenger" departSpeed="max"/>
    <trip id="veh38" depart="627.51" from="338477202#0" to="653727192" departLane="best" type="veh_passenger" departSpeed="max"/>
    <trip id="veh39" depart="644.03" from="-27258666" to="653727191#0" departLane="best" type="veh_passenger"/>
    <trip id="veh40" depart="660.54" from="360438706#0" to="-35260379#1" departLane="best" type="veh_passenger" departSpeed="max"/>
    <trip id="veh41" depart="677.06" from="1392084253" to="560538898#0" departLane="best" type="veh_passenger" departSpeed="max"/>
    <trip id="veh42" depart="693.57" from="-35260379#0" to="-902535590" departLane="best" type="veh_passenger"/>
    <trip id="veh43" depart="710.08" from="-35260374" to="-35260368#0" departLane="best" type="veh_passenger" departSpeed="max"/>
    <trip id="veh44" depart="726.60" from="27258652#0" to="158467737#1" departLane="best" type="veh_passenger" departSpeed="max"/>
    <trip id="veh45" depart="743.11" from="-560538898#1" to="-360438708" departLane="best" type="veh_passenger" departSpeed="max"/>
    <trip id="veh46" depart="759.62" from="-27258652#1" to="653727192" departLane="best" type="veh_passenger" departSpeed="max"/>
    <trip id="veh47" depart="776.14" from="360438708" to="-853618778#3" departLane="best" type="veh_passenger" departSpeed="max"/>
    <trip id="veh48" depart="792.65" from="902535590" to="35260376#1" departLane="best" type="veh_passenger" departSpeed="max"/>
    <trip id="veh49" depart="809.16" from="35260360#1" to="1054315845#0" departLane="best" type="veh_passenger"/>
    <trip id="veh50" depart="825.68" from="-560538898#1" to="249396544#2" departLane="best" type="veh_passenger" departSpeed="max"/>
    <trip id="veh51" depart="842.19" from="-35260361#1" to="-27258667" departLane="best" type="veh_passenger" departSpeed="max"/>
    <trip id="veh52" depart="858.70" from="-560538898#1" to="-27258667" departLane="best" type="veh_passenger" departSpeed="max"/>
    <trip id="veh53" depart="875.22" from="712245744#0" to="338477202#1" departLane="best" type="veh_passenger"/>
    <trip id="veh54" depart="891.73" from="-560538898#1" to="273622079#0" departLane="best" type="veh_passenger" departSpeed="max"/>
    <trip id="veh55" depart="908.25" from="360438708" to="-1217689481#0" departLane="best" type="veh_passenger" departSpeed="max"/>
    <trip id="veh56" depart="924.76" from="360438707" to="-27258652#0" departLane="best" type="veh_passenger" departSpeed="max"/>
    <trip id="veh57" depart="941.27" from="-1217689481#1" to="-1392084253" departLane="best" type="veh_passenger" departSpeed="max"/>
    <trip id="veh58" depart="957.79" from="1392084253" to="564298119#0" departLane="best" type="veh_passenger" departSpeed="max"/>
    <trip id="veh59" depart="974.30" from="712245744#0" to="-29547816" departLane="best" type="veh_passenger"/>
    <trip id="veh60" depart="990.81" from="-938252836" to="853618778#4" departLane="best" type="veh_passenger"/>
    <trip id="veh61" depart="1007.33" from="564298145#0" to="560538898#0" departLane="best" type="veh_passenger" departSpeed="max"/>
    <trip id="veh62" depart="1023.84" from="-853618778#6" to="560538898#0" departLane="best" type="veh_passenger" departSpeed="max"/>
    <trip id="veh63" depart="1040.35" from="-35260359#1" to="1054315845#0" departLane="best" type="veh_passenger"/>
    <trip id="veh64" depart="1056.87" from="564298145#0" to="1054315845#0" departLane="best" type="veh_passenger" departSpeed="max"/>
    <trip id="veh65" depart="1073.38" from="360438707" to="35260361#1" departLane="best" type="veh_passenger" departSpeed="max"/>
    <trip id="veh66" depart="1089.89" from="-853618778#0" to="1054315845#0" departLane="best" type="veh_passenger"/>
    <trip id="veh67" depart="1106.41" from="360438708" to="-35260379#1" departLane="best" type="veh_passenger" departSpeed="max"/>
    <trip id="veh68" depart="1122.92" from="-35260361#0" to="564298119#0" departLane="best" type="veh_passenger"/>
    <trip id="veh69" depart="1139.43" from="1217689481#0" to="338477202#2" departLane="best" type="veh_passenger" departSpeed="max"/>
    <trip id="veh70" depart="1155.95" from="-35260359#0" to="-1392084250" departLane="best" type="veh_passenger"/>
    <trip id="veh71" depart="1172.46" from="-35260369#0" to="-961323605#0" departLane="best" type="veh_passenger"/>
    <trip id="veh72" depart="1188.98" from="-1392084244#1" to="-35260379#0" departLane="best" type="veh_passenger"/>
    <trip id="veh73" depart="1205.49" from="853618778#4" to="1054315845#0" departLane="best" type="veh_passenger"/>
    <trip id="veh74" depart="1222.00" from="-560538898#1" to="-338477202#0" departLane="best" type="veh_passenger" departSpeed="max"/>
    <trip id="veh75" depart="1238.52" from="564298145#0" to="-368175444#1" departLane="best" type="veh_passenger" departSpeed="max"/>
    <trip id="veh76" depart="1255.03" from="27258652#0" to="-360438706#0" departLane="best" type="veh_passenger" departSpeed="max"/>
    <trip id="veh77" depart="1271.54" from="338477202#0" to="360438706#2" departLane="best" type="veh_passenger" departSpeed="max"/>
    <trip id="veh78" depart="1288.06" from="-560538898#1" to="35260360#1" departLane="best" type="veh_passenger" departSpeed="max"/>
    <trip id="veh79" depart="1304.57" from="360438707" to="1217689481#1" departLane="best" type="veh_passenger" departSpeed="max"/>
    <trip id="veh80" depart="1321.08" from="853618778#4" to="-1392084253" departLane="best" type="veh_passenger"/>
    <trip id="veh81" depart="1337.60" from="-35260374" to="564298119#0" departLane="best" type="veh_passenger" departSpeed="max"/>
    <trip id="veh82" depart="1354.11" from="1392084253" to="-653727191#1" departLane="best" type="veh_passenger" departSpeed="max"/>
    <trip id="veh83" depart="1370.62" from="1392084253" to="560538898#0" departLane="best" type="veh_passenger" departSpeed="max"/>
    <trip id="veh84" depart="1387.14" from="1225556789" to="853618778#4" departLane="best" type="veh_passenger"/>
    <trip id="veh85" depart="1403.65" from="-560538898#1" to="-35260368#0" departLane="best" type="veh_passenger" departSpeed="max"/>
    <trip id="veh86" depart="1420.17" from="-1392084244#1" to="-1217689481#0" departLane="best" type="veh_passenger"/>
    <trip id="veh87" depart="1436.68" from="29547816" to="-27258652#0" departLane="best" type="veh_passenger"/>
    <trip id="veh88" depart="1453.19" from="360438707" to="560538898#0" departLane="best" type="veh_passenger" departSpeed="max"/>
    <trip id="veh89" depart="1469.71" from="-961323605#1" to="35260361#1" departLane="best" type="veh_passenger"/>
    <trip id="veh90" depart="1486.22" from="-853618778#4" to="712245744#0" departLane="best" type="veh_passenger"/>
    <trip id="veh91" depart="1502.73" from="27258652#0" to="35260360#2" departLane="best" type="veh_passenger" departSpeed="max"/>
    <trip id="veh92" depart="1519.25" from="1392084253" to="-27258652#0" departLane="best" type="veh_passenger" departSpeed="max"/>
    <trip id="veh93" depart="1535.76" from="-35260361#1" to="-35260369#2" departLane="best" type="veh_passenger" departSpeed="max"/>
    <trip id="veh94" depart="1552.27" from="-35260379#0" to="-35260368#0" departLane="best" type="veh_passenger"/>
    <trip id="veh95" depart="1568.79" from="360438708" to="249396544#2" departLane="best" type="veh_passenger" departSpeed="max"/>
    <trip id="veh96" depart="1585.30" from="-27258666" to="1326404883" departLane="best" type="veh_passenger"/>
    <trip id="veh97" depart="1601.81" from="-35260360#2" to="27258667" departLane="best" type="veh_passenger"/>
    <trip id="veh98" depart="1618.33" from="-560538898#1" to="-1392084250" departLane="best" type="veh_passenger" departSpeed="max"/>
    <trip id="veh99" depart="1634.84" from="-338477202#2" to="-1392084250" departLane="best" type="veh_passenger" departSpeed="max"/>
    <trip id="veh100" depart="1651.35" from="360438706#0" to="35260369#2" departLane="best" type="veh_passenger" departSpeed="max"/>
    <trip id="veh101" depart="1667.87" from="338477202#0" to="853618778#6" departLane="best" type="veh_passenger" departSpeed="max"/>
    <trip id="veh102" depart="1684.38" from="-560538898#1" to="35260374" departLane="best" type="veh_passenger" departSpeed="max"/>
    <trip id="veh103" depart="1700.90" from="-560538898#1" to="273622079#1" departLane="best" type="veh_passenger" departSpeed="max"/>
    <trip id="veh104" depart="1717.41" from="653727192" to="1054315845#0" departLane="best" type="veh_passenger"/>
    <trip id="veh105" depart="1733.92" from="-1217689481#1" to="-1392084253" departLane="best" type="veh_passenger" departSpeed="max"/>
    <trip id="veh106" depart="1750.44" from="922415126" to="27258652#1" departLane="best" type="veh_passenger"/>
    <trip id="veh107" depart="1766.95" from="360438706#2" to="-35260368#2" departLane="best" type="veh_passenger"/>
    <trip id="veh108" depart="1783.46" from="564298145#0" to="35260369#0" departLane="best" type="veh_passenger" departSpeed="max"/>
    <trip id="veh109" depart="1799.98" from="564298145#0" to="1217689481#1" departLane="best" type="veh_passenger" departSpeed="max"/>
    <trip id="veh110" depart="1816.49" from="-29547818" to="653727192" departLane="best" type="veh_passenger"/>
    <trip id="veh111" depart="1833.00" from="-560538898#1" to="712245744#0" departLane="best" type="veh_passenger" departSpeed="max"/>
    <trip id="veh112" depart="1849.52" from="1392084253" to="-853619074" departLane="best" type="veh_passenger" departSpeed="max"/>
    <trip id="veh113" depart="1866.03" from="-27258652#1" to="-1392084250" departLane="best" type="veh_passenger" departSpeed="max"/>
    <trip id="veh114" depart="1882.54" from="-27258666" to="653727191#0" departLane="best" type="veh_passenger"/>
    <trip id="veh115" depart="1899.06" from="-564298126#9" to="-1217689481#0" departLane="best" type="veh_passenger"/>
    <trip id="veh116" depart="1915.57" from="-853618778#6" to="338477202#2" departLane="best" type="veh_passenger" departSpeed="max"/>
    <trip id="veh117" depart="1932.09" from="-653727191#1" to="853618778#6" departLane="best" type="veh_passenger"/>
    <trip id="veh118" depart="1948.60" from="1217689481#0" to="338477202#2" departLane="best" type="veh_passenger" departSpeed="max"/>
    <trip id="veh119" depart="1965.11" from="-853618778#5" to="338477202#2" departLane="best" type="veh_passenger"/>
    <trip id="veh120" depart="1981.63" from="-35260374" to="-338477202#0" departLane="best" type="veh_passenger" departSpeed="max"/>
    <trip id="veh121" depart="1998.14" from="29547818" to="1054315845#0" departLane="best" type="veh_passenger"/>
    <trip id="veh122" depart="2014.65" from="922415126" to="853618778#6" departLane="best" type="veh_passenger"/>
    <trip id="veh123" depart="2031.17" from="-560538898#1" to="-1392084244#1" departLane="best" type="veh_passenger" departSpeed="max"/>
    <trip id="veh124" depart="2047.68" from="-35260359#1" to="-961323605#0" departLane="best" type="veh_passenger"/>
    <trip id="veh125" depart="2064.19" from="-894912572" to="-961323605#0" departLane="best" type="veh_passenger"/>
    <trip id="veh126" depart="2080.71" from="-27258666" to="-360438707" departLane="best" type="veh_passenger"/>
    <trip id="veh127" depart="2097.22" from="-853618778#6" to="35260997" departLane="best" type="veh_passenger" departSpeed="max"/>
    <trip id="veh128" depart="2113.73" from="-273622079#1" to="338477202#1" departLane="best" type="veh_passenger" departSpeed="max"/>
    <trip id="veh129" depart="2130.25" from="35260368#0" to="-712245744#1" departLane="best" type="veh_passenger" departSpeed="max"/>
    <trip id="veh130" depart="2146.76" from="555020953#0" to="-1217689481#0" departLane="best" type="veh_passenger"/>
    <trip id="veh131" depart="2163.27" from="-560538898#1" to="1392084244#0" departLane="best" type="veh_passenger" departSpeed="max"/>
    <trip id="veh132" depart="2179.79" from="-560538898#1" to="-853618778#4" departLane="best" type="veh_passenger" departSpeed="max"/>
    <trip id="veh133" depart="2196.30" from="249396544#2" to="-35260368#1" departLane="best" type="veh_passenger"/>
    <trip id="veh134" depart="2212.82" from="564298145#0" to="-360438706#0" departLane="best" type="veh_passenger" departSpeed="max"/>
    <trip id="veh135" depart="2229.33" from="35260360#2" to="853618778#6" departLane="best" type="veh_passenger"/>
    <trip id="veh136" depart="2245.84" from="-27258697" to="564298119#0" departLane="best" type="veh_passenger" departSpeed="max"/>
    <trip id="veh137" depart="2262.36" from="-35260359#0" to="1054315845#0" departLane="best" type="veh_passenger"/>
    <trip id="veh138" depart="2278.87" from="-560538898#1" to="1392084244#0" departLane="best" type="veh_passenger" departSpeed="max"/>
    <trip id="veh139" depart="2295.38" from="902535590" to="-29547797#0" departLane="best" type="veh_passenger" departSpeed="max"/>
    <trip id="veh140" depart="2311.90" from="-27258652#1" to="35260361#1" departLane="best" type="veh_passenger" departSpeed="max"/>
    <trip id="veh141" depart="2328.41" from="-1392084250" to="-27258667" departLane="best" type="veh_passenger"/>
    <trip id="veh142" depart="2344.92" from="-564298126#9" to="-1392084253" departLane="best" type="veh_passenger"/>
    <trip id="veh143" depart="2361.44" from="853618778#0" to="1326404883" departLane="best" type="veh_passenger"/>
    <trip id="veh144" depart="2377.95" from="-1392084244#1" to="35260379#1" departLane="best" type="veh_passenger"/>
    <trip id="veh145" depart="2394.46" from="-1392084250" to="-27258652#0" departLane="best" type="veh_passenger"/>
    <trip id="veh146" depart="2410.98" from="-712245744#1" to="560538898#0" departLane="best" type="veh_passenger"/>
    <trip id="veh147" depart="2427.49" from="853618778#0" to="853618778#6" departLane="best" type="veh_passenger"/>
    <trip id="veh148" depart="2444.01" from="-35260361#1" to="-712245744#1" departLane="best" type="veh_passenger" departSpeed="max"/>
    <trip id="veh149" depart="2460.52" from="564298145#0" to="560538898#0" departLane="best" type="veh_passenger" departSpeed="max"/>
    <trip id="veh150" depart="2477.03" from="853618778#3" to="-1392084253" departLane="best" type="veh_passenger"/>
    <trip id="veh151" depart="2493.55" from="-1392084250" to="-894912572" departLane="best" type="veh_passenger"/>
    <trip id="veh152" depart="2510.06" from="564298145#0" to="35260361#1" departLane="best" type="veh_passenger" departSpeed="max"/>
    <trip id="veh153" depart="2526.57" from="-853618779" to="35260361#1" departLane="best" type="veh_passenger"/>
    <trip id="veh154" depart="2543.09" from="1054315844#0" to="560538898#0" departLane="best" type="veh_passenger" departSpeed="max"/>
    <trip id="veh155" depart="2559.60" from="-560538898#1" to="35260379#1" departLane="best" type="veh_passenger" departSpeed="max"/>
    <trip id="veh156" depart="2576.11" from="-560538898#1" to="-360438708" departLane="best" type="veh_passenger" departSpeed="max"/>
    <trip id="veh157" depart="2592.63" from="-35260376#0" to="-1392084244#1" departLane="best" type="veh_passenger"/>
    <trip id="veh158" depart="2609.14" from="-27258697" to="35260360#2" departLane="best" type="veh_passenger" departSpeed="max"/>
    <trip id="veh159" depart="2625.65" from="338477202#0" to="35260359#1" departLane="best" type="veh_passenger" departSpeed="max"/>
    <trip id="veh160" depart="2642.17" from="360438708" to="564298119#0" departLane="best" type="veh_passenger" departSpeed="max"/>
    <trip id="veh161" depart="2658.68" from="338477202#1" to="-35260368#0" departLane="best" type="veh_passenger"/>
    <trip id="veh162" depart="2675.19" from="-35260361#1" to="-1392084253" departLane="best" type="veh_passenger" departSpeed="max"/>
    <trip id="veh163" depart="2691.71" from="360438707" to="35260360#1" departLane="best" type="veh_passenger" departSpeed="max"/>
    <trip id="veh164" depart="2708.22" from="-1217689481#1" to="-1392084250" departLane="best" type="veh_passenger" departSpeed="max"/>
    <trip id="veh165" depart="2724.74" from="-894912572" to="338477202#2" departLane="best" type="veh_passenger"/>
    <trip id="veh166" depart="2741.25" from="-273622079#1" to="35260361#1" departLane="best" type="veh_passenger" departSpeed="max"/>
    <trip id="veh167" depart="2757.76" from="-564298126#9" to="338477202#2" departLane="best" type="veh_passenger"/>
    <trip id="veh168" depart="2774.28" from="-35260379#0" to="-35260368#0" departLane="best" type="veh_passenger"/>
    <trip id="veh169" depart="2790.79" from="29547797#0" to="-1392084253" departLane="best" type="veh_passenger" departSpeed="max"/>
    <trip id="veh170" depart="2807.30" from="-273622079#0" to="564298119#0" departLane="best" type="veh_passenger"/>
    <trip id="veh171" depart="2823.82" from="-35260375" to="712245744#0" departLane="best" type="veh_passenger"/>
    <trip id="veh172" depart="2840.33" from="922415126" to="560538898#0" departLane="best" type="veh_passenger"/>
    <trip id="veh173" depart="2856.84" from="-29547816" to="-27258652#0" departLane="best" type="veh_passenger"/>
    <trip id="veh174" depart="2873.36" from="-1392084244#1" to="-27258652#0" departLane="best" type="veh_passenger"/>
    <trip id="veh175" depart="2889.87" from="-249396544#2" to="-360438706#0" departLane="best" type="veh_passenger"/>
    <trip id="veh176" depart="2906.38" from="35260368#0" to="35260379#1" departLane="best" type="veh_passenger" departSpeed="max"/>
    <trip id="veh177" depart="2922.90" from="360438707" to="-35260368#1" departLane="best" type="veh_passenger" departSpeed="max"/>
    <trip id="veh178" depart="2939.41" from="360438708" to="35260374" departLane="best" type="veh_passenger" departSpeed="max"/>
    <trip id="veh179" depart="2955.93" from="35260376#1" to="-902535590" departLane="best" type="veh_passenger"/>
    <trip id="veh180" depart="2972.44" from="35260368#1" to="653727192" departLane="best" type="veh_passenger"/>
    <trip id="veh181" depart="2988.95" from="-1217689481#1" to="-360438706#0" departLane="best" type="veh_passenger" departSpeed="max"/>
    <trip id="veh182" depart="3005.47" from="35260369#2" to="-961323605#1" departLane="best" type="veh_passenger"/>
    <trip id="veh183" depart="3021.98" from="653727191#0" to="29547797#1" departLane="best" type="veh_passenger"/>
    <trip id="veh184" depart="3038.49" from="-712245744#1" to="853618778#2" departLane="best" type="veh_passenger"/>
    <trip id="veh185" depart="3055.01" from="564298145#0" to="1054315845#0" departLane="best" type="veh_passenger" departSpeed="max"/>
    <trip id="veh186" depart="3071.52" from="1217689481#0" to="564298119#0" departLane="best" type="veh_passenger" departSpeed="max"/>
    <trip id="veh187" depart="3088.03" from="-894912572" to="-961323605#1" departLane="best" type="veh_passenger"/>
    <trip id="veh188" depart="3104.55" from="-35260370" to="35260361#1" departLane="best" type="veh_passenger"/>
    <trip id="veh189" depart="3121.06" from="-338477202#2" to="564298119#0" departLane="best" type="veh_passenger" departSpeed="max"/>
    <trip id="veh190" depart="3137.57" from="1217689481#0" to="-27258652#0" departLane="best" type="veh_passenger" departSpeed="max"/>
    <trip id="veh191" depart="3154.09" from="-35260361#1" to="-27258666" departLane="best" type="veh_passenger" departSpeed="max"/>
    <trip id="veh192" depart="3170.60" from="-29547818" to="1392084244#0" departLane="best" type="veh_passenger"/>
    <trip id="veh193" depart="3187.12" from="29547797#0" to="564298119#0" departLane="best" type="veh_passenger" departSpeed="max"/>
    <trip id="veh194" depart="3203.63" from="564298145#0" to="27258666" departLane="best" type="veh_passenger" departSpeed="max"/>
    <trip id="veh195" depart="3220.14" from="35260368#0" to="273622079#1" departLane="best" type="veh_passenger" departSpeed="max"/>
    <trip id="veh196" depart="3236.66" from="564298145#0" to="-338477202#0" departLane="best" type="veh_passenger" departSpeed="max"/>
    <trip id="veh197" depart="3253.17" from="1217689481#0" to="-249396544#1" departLane="best" type="veh_passenger" departSpeed="max"/>
    <trip id="veh198" depart="3269.68" from="35260360#1" to="-1392084253" departLane="best" type="veh_passenger"/>
    <trip id="veh199" depart="3286.20" from="360438707" to="560538898#0" departLane="best" type="veh_passenger" departSpeed="max"/>
    <trip id="veh200" depart="3302.71" from="-853618778#2" to="653727191#0" departLane="best" type="veh_passenger"/>
    <trip id="veh201" depart="3319.22" from="-560538898#1" to="35260374" departLane="best" type="veh_passenger" departSpeed="max"/>
    <trip id="veh202" depart="3335.74" from="-853618778#6" to="564298119#0" departLane="best" type="veh_passenger" departSpeed="max"/>
    <trip id="veh203" depart="3352.25" from="555020953#0" to="-27258652#0" departLane="best" type="veh_passenger"/>
    <trip id="veh204" depart="3368.76" from="1054315844#0" to="564298119#0" departLane="best" type="veh_passenger" departSpeed="max"/>
    <trip id="veh205" depart="3385.28" from="922415126" to="1054315845#0" departLane="best" type="veh_passenger"/>
    <trip id="veh206" depart="3401.79" from="-560538898#1" to="-1392084253" departLane="best" type="veh_passenger" departSpeed="max"/>
    <trip id="veh207" depart="3418.30" from="-1217689481#1" to="-902535590" departLane="best" type="veh_passenger" departSpeed="max"/>
    <trip id="veh208" depart="3434.82" from="564298145#0" to="-360438707" departLane="best" type="veh_passenger" departSpeed="max"/>
    <trip id="veh209" depart="3451.33" from="27258652#0" to="-29547826" departLane="best" type="veh_passenger" departSpeed="max"/>
    <trip id="veh210" depart="3467.85" from="35260360#0" to="961323605#1" departLane="best" type="veh_passenger"/>
    <trip id="veh211" depart="3484.36" from="-560538898#1" to="35260361#1" departLane="best" type="veh_passenger" departSpeed="max"/>
    <trip id="veh212" depart="3500.87" from="-338477202#2" to="961323605#1" departLane="best" type="veh_passenger" departSpeed="max"/>
    <trip id="veh213" depart="3517.39" from="-249396544#3" to="-35260369#1" departLane="best" type="veh_passenger"/>
    <trip id="veh214" depart="3533.90" from="-853618778#6" to="368175444#1" departLane="best" type="veh_passenger" departSpeed="max"/>
    <trip id="veh215" depart="3550.41" from="29547818" to="-1392084253" departLane="best" type="veh_passenger"/>
    <trip id="veh216" depart="3566.93" from="-560538898#1" to="853618778#6" departLane="best" type="veh_passenger" departSpeed="max"/>
    <trip id="veh217" depart="3583.44" from="1392084244#0" to="-1065952538" departLane="best" type="veh_passenger"/>
    <trip id="veh218" depart="3599.95" from="-35260359#0" to="360438706#2" departLane="best" type="veh_passenger"/>
</routes>
