<?xml version="1.0" encoding="UTF-8"?>

<!-- generated on 2025-08-30 20:07:00.884265 by randomTrips.py v1_24_0+0000-b72eb3fabc8
<configuration>
    <net-file value="osm.net.xml.gz"/>
    <output-trip-file value="osm.bus.trips.xml"/>
    <route-file value="osm.bus.rou.xml"/>
    <prefix value="bus"/>
    <trip-attributes value="departLane=&quot;best&quot;"/>
    <fringe-start-attributes value="departSpeed=&quot;max&quot;"/>
    <vehicle-class value="bus"/>
    <fringe-factor value="5"/>
    <edge-permission value="bus"/>
    <via-edge-types value="highway.motorway,highway.motorway_link,highway.trunk_link,highway.primary_link,highway.secondary_link,highway.tertiary_link"/>
    <min-distance value="600.0"/>
    <min-distance.fringe value="10.0"/>
    <remove-loops value="True"/>
    <insertion-density value="4.0"/>
</configuration>
-->

<routes xmlns:xsi="http://www.w3.org/2001/XMLSchema-instance" xsi:noNamespaceSchemaLocation="http://sumo.dlr.de/xsd/routes_file.xsd">
    <vType id="bus_bus" vClass="bus"/>
    <trip id="bus0" depart="0.00" from="-35260360#1" to="1054315845#0" departLane="best" type="bus_bus"/>
    <trip id="bus1" depart="49.54" from="-35260360#1" to="27258652#1" departLane="best" type="bus_bus"/>
    <trip id="bus2" depart="99.08" from="360438706#0" to="338477202#2" departLane="best" type="bus_bus" departSpeed="max"/>
    <trip id="bus3" depart="148.62" from="1392084253" to="853618779" departLane="best" type="bus_bus" departSpeed="max"/>
    <trip id="bus4" depart="198.16" from="35260360#1" to="-1392084253" departLane="best" type="bus_bus"/>
    <trip id="bus5" depart="247.70" from="-27258652#1" to="-35260368#0" departLane="best" type="bus_bus" departSpeed="max"/>
    <trip id="bus6" depart="297.24" from="-27258697" to="-35260369#2" departLane="best" type="bus_bus" departSpeed="max"/>
    <trip id="bus7" depart="346.78" from="961323605#1" to="1054315845#0" departLane="best" type="bus_bus"/>
    <trip id="bus8" depart="396.33" from="961323605#1" to="1217689481#1" departLane="best" type="bus_bus"/>
    <trip id="bus9" depart="445.87" from="902535590" to="560538898#0" departLane="best" type="bus_bus" departSpeed="max"/>
    <trip id="bus10" depart="495.41" from="338477202#0" to="1225556789" departLane="best" type="bus_bus" departSpeed="max"/>
    <trip id="bus11" depart="544.95" from="-27258697" to="-853618779" departLane="best" type="bus_bus" departSpeed="max"/>
    <trip id="bus12" depart="594.49" from="-961323605#0" to="853618778#6" departLane="best" type="bus_bus"/>
    <trip id="bus13" depart="644.03" from="-35260374" to="-1392084253" departLane="best" type="bus_bus" departSpeed="max"/>
    <trip id="bus14" depart="693.57" from="555020953#0" to="853618778#6" departLane="best" type="bus_bus"/>
    <trip id="bus15" depart="743.11" from="-27258652#1" to="35260361#1" departLane="best" type="bus_bus" departSpeed="max"/>
    <trip id="bus16" depart="792.65" from="1054315844#0" to="1392084244#2" departLane="best" type="bus_bus" departSpeed="max"/>
    <trip id="bus17" depart="842.19" from="1392084253" to="35260360#1" departLane="best" type="bus_bus" departSpeed="max"/>
    <trip id="bus18" depart="891.73" from="-27258697" to="-35260360#2" departLane="best" type="bus_bus" departSpeed="max"/>
    <trip id="bus19" depart="941.27" from="-368175444#1" to="27258652#1" departLane="best" type="bus_bus"/>
    <trip id="bus20" depart="990.81" from="-35260361#0" to="564298119#0" departLane="best" type="bus_bus"/>
    <trip id="bus21" depart="1040.35" from="360438708" to="-158467737#0" departLane="best" type="bus_bus" departSpeed="max"/>
    <trip id="bus22" depart="1089.89" from="853618778#3" to="249396544#3" departLane="best" type="bus_bus"/>
    <trip id="bus23" depart="1139.43" from="1054315844#0" to="35260369#1" departLane="best" type="bus_bus" departSpeed="max"/>
    <trip id="bus24" depart="1188.98" from="360438706#0" to="-338477202#0" departLane="best" type="bus_bus" departSpeed="max"/>
    <trip id="bus25" depart="1238.52" from="-27258667" to="-853618779" departLane="best" type="bus_bus"/>
    <trip id="bus26" depart="1288.06" from="-853618778#6" to="-902535590" departLane="best" type="bus_bus" departSpeed="max"/>
    <trip id="bus27" depart="1337.60" from="-338477202#2" to="-902535590" departLane="best" type="bus_bus" departSpeed="max"/>
    <trip id="bus28" depart="1387.14" from="902535590" to="853618778#2" departLane="best" type="bus_bus" departSpeed="max"/>
    <trip id="bus29" depart="1436.68" from="-853618778#5" to="-1392084253" departLane="best" type="bus_bus"/>
    <trip id="bus30" depart="1486.22" from="-961323605#0" to="-853618778#4" departLane="best" type="bus_bus"/>
    <trip id="bus31" depart="1535.76" from="1392084253" to="35260361#1" departLane="best" type="bus_bus" departSpeed="max"/>
    <trip id="bus32" depart="1585.30" from="-27258652#1" to="-338477202#0" departLane="best" type="bus_bus" departSpeed="max"/>
    <trip id="bus33" depart="1634.84" from="27258652#0" to="29547818" departLane="best" type="bus_bus" departSpeed="max"/>
    <trip id="bus34" depart="1684.38" from="-35260361#1" to="-27258667" departLane="best" type="bus_bus" departSpeed="max"/>
    <trip id="bus35" depart="1733.92" from="564298145#0" to="-35260368#0" departLane="best" type="bus_bus" departSpeed="max"/>
    <trip id="bus36" depart="1783.46" from="-853618778#6" to="27258652#1" departLane="best" type="bus_bus" departSpeed="max"/>
    <trip id="bus37" depart="1833.00" from="338477202#0" to="-35260376#1" departLane="best" type="bus_bus" departSpeed="max"/>
    <trip id="bus38" depart="1882.54" from="-27258652#1" to="-35260360#0" departLane="best" type="bus_bus" departSpeed="max"/>
    <trip id="bus39" depart="1932.09" from="360438707" to="338477202#2" departLane="best" type="bus_bus" departSpeed="max"/>
    <trip id="bus40" depart="1981.63" from="-35260369#1" to="27258667" departLane="best" type="bus_bus"/>
    <trip id="bus41" depart="2031.17" from="1217689481#0" to="564298119#0" departLane="best" type="bus_bus" departSpeed="max"/>
    <trip id="bus42" depart="2080.71" from="-853618778#6" to="-1065952538" departLane="best" type="bus_bus" departSpeed="max"/>
    <trip id="bus43" depart="2130.25" from="-27258652#1" to="564298119#0" departLane="best" type="bus_bus" departSpeed="max"/>
    <trip id="bus44" depart="2179.79" from="360438706#0" to="560538898#0" departLane="best" type="bus_bus" departSpeed="max"/>
    <trip id="bus45" depart="2229.33" from="-35260361#1" to="-27258652#0" departLane="best" type="bus_bus" departSpeed="max"/>
    <trip id="bus46" depart="2278.87" from="360438706#0" to="560538898#0" departLane="best" type="bus_bus" departSpeed="max"/>
    <trip id="bus47" depart="2328.41" from="35260997" to="-27258652#0" departLane="best" type="bus_bus"/>
    <trip id="bus48" depart="2377.95" from="902535590" to="-35260369#2" departLane="best" type="bus_bus" departSpeed="max"/>
    <trip id="bus49" depart="2427.49" from="853618778#4" to="-27258666" departLane="best" type="bus_bus"/>
    <trip id="bus50" depart="2477.03" from="902535590" to="-338477202#0" departLane="best" type="bus_bus" departSpeed="max"/>
    <trip id="bus51" depart="2526.57" from="-27258697" to="-853618779" departLane="best" type="bus_bus" departSpeed="max"/>
    <trip id="bus52" depart="2576.11" from="27258667" to="1217689481#1" departLane="best" type="bus_bus"/>
    <trip id="bus53" depart="2625.65" from="-853618778#0" to="27258652#1" departLane="best" type="bus_bus"/>
    <trip id="bus54" depart="2675.19" from="338477202#0" to="-360438706#0" departLane="best" type="bus_bus" departSpeed="max"/>
    <trip id="bus55" depart="2724.74" from="-853618778#6" to="27258652#1" departLane="best" type="bus_bus" departSpeed="max"/>
    <trip id="bus56" depart="2774.28" from="1054315844#0" to="564298119#0" departLane="best" type="bus_bus" departSpeed="max"/>
    <trip id="bus57" depart="2823.82" from="-27258652#1" to="1217689481#1" departLane="best" type="bus_bus" departSpeed="max"/>
    <trip id="bus58" depart="2873.36" from="338477202#0" to="-35260360#2" departLane="best" type="bus_bus" departSpeed="max"/>
    <trip id="bus59" depart="2922.90" from="-35260361#1" to="-938252836" departLane="best" type="bus_bus" departSpeed="max"/>
    <trip id="bus60" depart="2972.44" from="360438708" to="-158467737#0" departLane="best" type="bus_bus" departSpeed="max"/>
    <trip id="bus61" depart="3021.98" from="-27258697" to="-853618778#4" departLane="best" type="bus_bus" departSpeed="max"/>
    <trip id="bus62" depart="3071.52" from="-338477202#1" to="853618778#6" departLane="best" type="bus_bus"/>
    <trip id="bus63" depart="3121.06" from="-961323605#1" to="35260374" departLane="best" type="bus_bus"/>
    <trip id="bus64" depart="3170.60" from="338477202#0" to="938252836" departLane="best" type="bus_bus" departSpeed="max"/>
    <trip id="bus65" depart="3220.14" from="27258652#0" to="853618778#6" departLane="best" type="bus_bus" departSpeed="max"/>
    <trip id="bus66" depart="3269.68" from="564298145#0" to="35260361#1" departLane="best" type="bus_bus" departSpeed="max"/>
    <trip id="bus67" depart="3319.22" from="-27258652#1" to="-35260370" departLane="best" type="bus_bus" departSpeed="max"/>
    <trip id="bus68" depart="3368.76" from="35260360#1" to="-1392084253" departLane="best" type="bus_bus"/>
    <trip id="bus69" depart="3418.30" from="-853618778#6" to="1326404883" departLane="best" type="bus_bus" departSpeed="max"/>
    <trip id="bus70" depart="3467.85" from="-853618778#6" to="564298119#0" departLane="best" type="bus_bus" departSpeed="max"/>
    <trip id="bus71" depart="3517.39" from="27258652#0" to="338477202#2" departLane="best" type="bus_bus" departSpeed="max"/>
    <trip id="bus72" depart="3566.93" from="360438708" to="853618778#6" departLane="best" type="bus_bus" departSpeed="max"/>
</routes>
