<?xml version="1.0" encoding="UTF-8"?>

<!-- generated on 2025-09-02 21:34:40.101126 by osmWebWizard.py v1_24_0+0000-b72eb3fabc8
<configuration>
    <net-file value="C:\Users\kgaqu\OneDrive\Documents\4th Year\Capstone 2\v10\osm_importer\osm_scenarios\2025-09-02-21-34-32\osm.net.xml.gz"/>
    <output-trip-file value="C:\Users\kgaqu\OneDrive\Documents\4th Year\Capstone 2\v10\osm_importer\osm_scenarios\2025-09-02-21-34-32\osm.pedestrian.trips.xml"/>
    <route-file value="C:\Users\kgaqu\OneDrive\Documents\4th Year\Capstone 2\v10\osm_importer\osm_scenarios\2025-09-02-21-34-32\osm.pedestrian.rou.xml"/>
    <pedestrians value="True"/>
    <prefix value="ped"/>
    <vehicle-class value="pedestrian"/>
    <fringe-factor value="1"/>
    <seed value="46"/>
    <max-distance value="2000.0"/>
    <insertion-density value="10.0"/>
</configuration>
-->

<routes xmlns:xsi="http://www.w3.org/2001/XMLSchema-instance" xsi:noNamespaceSchemaLocation="http://sumo.dlr.de/xsd/routes_file.xsd">
    <vType id="ped_pedestrian" vClass="pedestrian"/>
    <person id="ped0" depart="0.00" type="ped_pedestrian">
        <walk from="712245744#0" to="1392084253"/>
    </person>
    <person id="ped1" depart="57.21" type="ped_pedestrian">
        <walk from="564298145#0" to="712245744#0"/>
    </person>
    <person id="ped2" depart="114.43" type="ped_pedestrian">
        <walk from="-653727191#1" to="564298119#0"/>
    </person>
    <person id="ped3" depart="171.64" type="ped_pedestrian">
        <walk from="564298145#0" to="922415126"/>
    </person>
    <person id="ped4" depart="228.86" type="ped_pedestrian">
        <walk from="-560538898#1" to="-560538898#1"/>
    </person>
    <person id="ped5" depart="286.07" type="ped_pedestrian">
        <walk from="1326404883" to="657808646"/>
    </person>
    <person id="ped6" depart="343.28" type="ped_pedestrian">
        <walk from="657808646" to="-564298126#9"/>
    </person>
    <person id="ped7" depart="400.50" type="ped_pedestrian">
        <walk from="712245744#0" to="564298119#0"/>
    </person>
    <person id="ped8" depart="457.71" type="ped_pedestrian">
        <walk from="922415126" to="922415126"/>
    </person>
    <person id="ped9" depart="514.92" type="ped_pedestrian">
        <walk from="-564298126#9" to="922415126"/>
    </person>
    <person id="ped10" depart="572.14" type="ped_pedestrian">
        <walk from="564298119#0" to="-653727191#1"/>
    </person>
    <person id="ped11" depart="629.35" type="ped_pedestrian">
        <walk from="564298119#0" to="-560538898#1"/>
    </person>
    <person id="ped12" depart="686.57" type="ped_pedestrian">
        <walk from="653727192" to="564298145#0"/>
    </person>
    <person id="ped13" depart="743.78" type="ped_pedestrian">
        <walk from="-564298126#9" to="-653727191#1"/>
    </person>
    <person id="ped14" depart="800.99" type="ped_pedestrian">
        <walk from="564298119#0" to="657808646"/>
    </person>
    <person id="ped15" depart="858.21" type="ped_pedestrian">
        <walk from="-712245744#1" to="-564298126#9"/>
    </person>
    <person id="ped16" depart="915.42" type="ped_pedestrian">
        <walk from="1326404883" to="-560538898#1"/>
    </person>
    <person id="ped17" depart="972.63" type="ped_pedestrian">
        <walk from="1326404883" to="712245744#0"/>
    </person>
    <person id="ped18" depart="1029.85" type="ped_pedestrian">
        <walk from="-653727191#1" to="-712245744#1"/>
    </person>
    <person id="ped19" depart="1087.06" type="ped_pedestrian">
        <walk from="657808646" to="-653727191#1"/>
    </person>
    <person id="ped20" depart="1144.28" type="ped_pedestrian">
        <walk from="-564298126#9" to="-712245744#1"/>
    </person>
    <person id="ped21" depart="1201.49" type="ped_pedestrian">
        <walk from="564298145#0" to="653727192"/>
    </person>
    <person id="ped22" depart="1258.70" type="ped_pedestrian">
        <walk from="653727191#0" to="-560538898#1"/>
    </person>
    <person id="ped23" depart="1315.92" type="ped_pedestrian">
        <walk from="-712245744#1" to="-564298126#9"/>
    </person>
    <person id="ped24" depart="1373.13" type="ped_pedestrian">
        <walk from="564298145#0" to="1326404883"/>
    </person>
    <person id="ped25" depart="1430.34" type="ped_pedestrian">
        <walk from="653727192" to="564298145#0"/>
    </person>
    <person id="ped26" depart="1487.56" type="ped_pedestrian">
        <walk from="564298145#0" to="-653727191#1"/>
    </person>
    <person id="ped27" depart="1544.77" type="ped_pedestrian">
        <walk from="564298145#0" to="-560538898#1"/>
    </person>
    <person id="ped28" depart="1601.99" type="ped_pedestrian">
        <walk from="-564298126#9" to="712245744#0"/>
    </person>
    <person id="ped29" depart="1659.20" type="ped_pedestrian">
        <walk from="-653727191#1" to="-560538898#1"/>
    </person>
    <person id="ped30" depart="1716.41" type="ped_pedestrian">
        <walk from="653727192" to="-653727191#1"/>
    </person>
    <person id="ped31" depart="1773.63" type="ped_pedestrian">
        <walk from="-712245744#1" to="564298145#0"/>
    </person>
    <person id="ped32" depart="1830.84" type="ped_pedestrian">
        <walk from="922415126" to="-560538898#1"/>
    </person>
    <person id="ped33" depart="1888.05" type="ped_pedestrian">
        <walk from="653727191#0" to="-560538898#1"/>
    </person>
    <person id="ped34" depart="1945.27" type="ped_pedestrian">
        <walk from="657808646" to="1326404883"/>
    </person>
    <person id="ped35" depart="2002.48" type="ped_pedestrian">
        <walk from="-564298126#9" to="1392084253"/>
    </person>
    <person id="ped36" depart="2059.70" type="ped_pedestrian">
        <walk from="653727191#0" to="-564298126#9"/>
    </person>
    <person id="ped37" depart="2116.91" type="ped_pedestrian">
        <walk from="1326404883" to="657808646"/>
    </person>
    <person id="ped38" depart="2174.12" type="ped_pedestrian">
        <walk from="657808646" to="653727192"/>
    </person>
    <person id="ped39" depart="2231.34" type="ped_pedestrian">
        <walk from="564298119#0" to="653727192"/>
    </person>
    <person id="ped40" depart="2288.55" type="ped_pedestrian">
        <walk from="-564298126#9" to="1326404883"/>
    </person>
    <person id="ped41" depart="2345.77" type="ped_pedestrian">
        <walk from="1326404883" to="-564298126#9"/>
    </person>
    <person id="ped42" depart="2402.98" type="ped_pedestrian">
        <walk from="-560538898#1" to="-560538898#1"/>
    </person>
    <person id="ped43" depart="2460.19" type="ped_pedestrian">
        <walk from="922415126" to="1326404883"/>
    </person>
    <person id="ped44" depart="2517.41" type="ped_pedestrian">
        <walk from="1326404883" to="653727191#0"/>
    </person>
    <person id="ped45" depart="2574.62" type="ped_pedestrian">
        <walk from="653727192" to="712245744#0"/>
    </person>
    <person id="ped46" depart="2631.83" type="ped_pedestrian">
        <walk from="712245744#0" to="-560538898#1"/>
    </person>
    <person id="ped47" depart="2689.05" type="ped_pedestrian">
        <walk from="-712245744#1" to="1392084253"/>
    </person>
    <person id="ped48" depart="2746.26" type="ped_pedestrian">
        <walk from="-712245744#1" to="564298145#0"/>
    </person>
    <person id="ped49" depart="2803.48" type="ped_pedestrian">
        <walk from="-712245744#1" to="712245744#0"/>
    </person>
    <person id="ped50" depart="2860.69" type="ped_pedestrian">
        <walk from="1326404883" to="712245744#0"/>
    </person>
    <person id="ped51" depart="2917.90" type="ped_pedestrian">
        <walk from="922415126" to="653727191#0"/>
    </person>
    <person id="ped52" depart="2975.12" type="ped_pedestrian">
        <walk from="-712245744#1" to="-560538898#1"/>
    </person>
    <person id="ped53" depart="3032.33" type="ped_pedestrian">
        <walk from="922415126" to="712245744#0"/>
    </person>
    <person id="ped54" depart="3089.54" type="ped_pedestrian">
        <walk from="564298119#0" to="-560538898#1"/>
    </person>
    <person id="ped55" depart="3146.76" type="ped_pedestrian">
        <walk from="653727192" to="-712245744#1"/>
    </person>
    <person id="ped56" depart="3203.97" type="ped_pedestrian">
        <walk from="1392084253" to="922415126"/>
    </person>
    <person id="ped57" depart="3261.19" type="ped_pedestrian">
        <walk from="712245744#0" to="712245744#0"/>
    </person>
    <person id="ped58" depart="3318.40" type="ped_pedestrian">
        <walk from="-560538898#1" to="653727191#0"/>
    </person>
    <person id="ped59" depart="3375.61" type="ped_pedestrian">
        <walk from="564298145#0" to="653727192"/>
    </person>
    <person id="ped60" depart="3432.83" type="ped_pedestrian">
        <walk from="-560538898#1" to="712245744#0"/>
    </person>
    <person id="ped61" depart="3490.04" type="ped_pedestrian">
        <walk from="-653727191#1" to="-560538898#1"/>
    </person>
    <person id="ped62" depart="3547.25" type="ped_pedestrian">
        <walk from="653727191#0" to="653727192"/>
    </person>
</routes>
