<?xml version="1.0" encoding="UTF-8"?>

<!-- generated on 2025-08-30 20:07:01.026733 by randomTrips.py v1_24_0+0000-b72eb3fabc8
<configuration>
    <net-file value="osm.net.xml.gz"/>
    <output-trip-file value="osm.bus.trips.xml"/>
    <route-file value="osm.bus.rou.xml"/>
    <prefix value="bus"/>
    <trip-attributes value="departLane=&quot;best&quot;"/>
    <fringe-start-attributes value="departSpeed=&quot;max&quot;"/>
    <vehicle-class value="bus"/>
    <fringe-factor value="5"/>
    <edge-permission value="bus"/>
    <via-edge-types value="highway.motorway,highway.motorway_link,highway.trunk_link,highway.primary_link,highway.secondary_link,highway.tertiary_link"/>
    <min-distance value="600.0"/>
    <min-distance.fringe value="10.0"/>
    <remove-loops value="True"/>
    <insertion-density value="4.0"/>
</configuration>
-->

<!-- generated on 2025-08-30 20:07:00 by Eclipse SUMO duarouter Version 1.24.0
<duarouterConfiguration xmlns:xsi="http://www.w3.org/2001/XMLSchema-instance" xsi:noNamespaceSchemaLocation="http://sumo.dlr.de/xsd/duarouterConfiguration.xsd">

    <input>
        <net-file value="osm.net.xml.gz"/>
        <route-files value="osm.bus.trips.xml"/>
    </input>

    <output>
        <output-file value="osm.bus.rou.xml"/>
        <alternatives-output value="NUL"/>
    </output>

    <processing>
        <remove-loops value="true"/>
    </processing>

    <time>
        <begin value="0.0"/>
        <end value="3600.0"/>
    </time>

    <report>
        <no-warnings value="true"/>
        <ignore-errors value="true"/>
        <no-step-log value="true"/>
    </report>

</duarouterConfiguration>
-->

<routes xmlns:xsi="http://www.w3.org/2001/XMLSchema-instance" xsi:noNamespaceSchemaLocation="http://sumo.dlr.de/xsd/routes_file.xsd">
    <vType id="bus_bus" vClass="bus"/>
    <vehicle id="bus0" type="bus_bus" depart="0.00" departLane="best">
        <route edges="-35260360#1 -29547818 -853618778#3 -853618778#2 -853618778#0 853618779 368175444#1 1225556789 -1392084250 -653727191#1 1054315845#0"/>
    </vehicle>
    <vehicle id="bus1" type="bus_bus" depart="49.54" departLane="best">
        <route edges="-35260360#1 -29547818 -853618778#3 -853618778#2 -853618778#0 853618779 368175444#1 1225556789 -1392084250 -653727191#1 -712245744#1 249396544#0 938252836 961323605#0 961323605#1 27258652#1"/>
    </vehicle>
    <vehicle id="bus2" type="bus_bus" depart="99.08" departLane="best" departSpeed="max">
        <route edges="360438706#0 360438706#2 1392084244#2 712245744#0 653727191#0 653727192 -1065952538 -368175444#1 35260369#0 35260369#1 35260369#2 338477202#2"/>
    </vehicle>
    <vehicle id="bus3" type="bus_bus" depart="148.62" departLane="best" departSpeed="max">
        <route edges="1392084253 1392084244#0 1392084244#2 712245744#0 653727191#0 653727192 -1065952538 -368175444#1 35260369#0"/>
    </vehicle>
    <vehicle id="bus4" type="bus_bus" depart="198.16" departLane="best">
        <route edges="35260360#1 -29547816 -853618778#2 -853618778#0 853618779 368175444#1 1225556789 -1392084250 -653727191#1 -712245744#1 -564298126#9 -1392084244#1 -1392084253"/>
    </vehicle>
    <vehicle id="bus5" type="bus_bus" depart="247.70" departLane="best" departSpeed="max">
        <route edges="-27258652#1 -961323605#1 -961323605#0 -938252836 -249396544#1 712245744#0 653727191#0 653727192 -1065952538 -368175444#1 -853618779 853618778#0 853618778#2 853618778#3 853618778#4 853618778#5 -35260361#0 -35260368#1 -35260368#0"/>
    </vehicle>
    <vehicle id="bus6" type="bus_bus" depart="297.24" departLane="best" departSpeed="max">
        <route edges="-27258697 922415126 653727191#0 653727192 -1065952538 -368175444#1 35260369#0 35260369#1 35260369#2"/>
    </vehicle>
    <vehicle id="bus7" type="bus_bus" depart="346.78" departLane="best">
        <route edges="-961323605#1 -961323605#0 -938252836 -249396544#1 712245744#0 1054315845#0"/>
    </vehicle>
    <vehicle id="bus8" type="bus_bus" depart="396.33" departLane="best">
        <route edges="-961323605#1 -961323605#0 -938252836 -249396544#1 712245744#0 653727191#0 653727192 -1065952538 -368175444#1 -853618779 853618778#0 853618778#2 853618778#3 853618778#4 853618778#5 -35260361#0 -35260368#1 894912572 1217689481#1"/>
    </vehicle>
    <vehicle id="bus9" type="bus_bus" depart="445.87" departLane="best" departSpeed="max">
        <route edges="902535590 1392084244#0 1392084244#2 712245744#0 653727191#0 653727192 560538898#0"/>
    </vehicle>
    <vehicle id="bus10" type="bus_bus" depart="495.41" departLane="best" departSpeed="max">
        <route edges="338477202#0 -35260376#1 -35260376#0 35260997 853618779 368175444#1 1225556789"/>
    </vehicle>
    <vehicle id="bus11" type="bus_bus" depart="544.95" departLane="best" departSpeed="max">
        <route edges="-27258697 922415126 653727191#0 653727192 -1065952538 -368175444#1 -853618779"/>
    </vehicle>
    <vehicle id="bus12" type="bus_bus" depart="594.49" departLane="best">
        <route edges="-961323605#0 -938252836 -249396544#1 712245744#0 653727191#0 653727192 -1065952538 -368175444#1 -853618779 853618778#0 853618778#2 853618778#3 853618778#4 853618778#5 853618778#6"/>
    </vehicle>
    <vehicle id="bus13" type="bus_bus" depart="644.03" departLane="best" departSpeed="max">
        <route edges="-35260374 -853618778#0 853618779 368175444#1 1225556789 -1392084250 -653727191#1 -712245744#1 -564298126#9 -1392084244#1 -1392084253"/>
    </vehicle>
    <vehicle id="bus14" type="bus_bus" depart="693.57" departLane="best">
        <route edges="555020953#0 653727191#0 653727192 -1065952538 -368175444#1 -853618779 853618778#0 853618778#2 853618778#3 853618778#4 853618778#5 853618778#6"/>
    </vehicle>
    <vehicle id="bus15" type="bus_bus" depart="743.11" departLane="best" departSpeed="max">
        <route edges="-27258652#1 -961323605#1 -961323605#0 -938252836 -249396544#1 712245744#0 653727191#0 653727192 -1065952538 -368175444#1 -853618779 853618778#0 853618778#2 853618778#3 853618778#4 853618778#5 35260361#1"/>
    </vehicle>
    <vehicle id="bus16" type="bus_bus" depart="792.65" departLane="best" departSpeed="max">
        <route edges="1054315844#0 555020953#0 -712245744#1 -564298126#9"/>
    </vehicle>
    <vehicle id="bus17" type="bus_bus" depart="842.19" departLane="best" departSpeed="max">
        <route edges="1392084253 1392084244#0 1392084244#2 712245744#0 653727191#0 653727192 -1065952538 -368175444#1 -853618779 853618778#0 853618778#2 853618778#3 29547818 35260360#1"/>
    </vehicle>
    <vehicle id="bus18" type="bus_bus" depart="891.73" departLane="best" departSpeed="max">
        <route edges="-27258697 922415126 653727191#0 653727192 -1065952538 -368175444#1 -853618779 853618778#0 -29547797#1 -35260360#2"/>
    </vehicle>
    <vehicle id="bus19" type="bus_bus" depart="941.27" departLane="best">
        <route edges="368175444#1 1225556789 -1392084250 -653727191#1 -712245744#1 249396544#0 938252836 961323605#0 961323605#1 27258652#1"/>
    </vehicle>
    <vehicle id="bus20" type="bus_bus" depart="990.81" departLane="best">
        <route edges="-35260361#0 35260368#2 -35260359#0 -853618778#4 -853618778#3 -853618778#2 -853618778#0 853618779 368175444#1 1225556789 -1392084250 564298119#0"/>
    </vehicle>
    <vehicle id="bus21" type="bus_bus" depart="1040.35" departLane="best" departSpeed="max">
        <route edges="360438708 360438706#2 1392084244#2 712245744#0 653727191#0 653727192 -1065952538 -368175444#1 -853618779 -853619074 -158467737#0"/>
    </vehicle>
    <vehicle id="bus22" type="bus_bus" depart="1089.89" departLane="best">
        <route edges="-853618778#3 -853618778#2 -853618778#0 853618779 368175444#1 1225556789 -1392084250 -653727191#1 -712245744#1 249396544#0 249396544#2 249396544#3"/>
    </vehicle>
    <vehicle id="bus23" type="bus_bus" depart="1139.43" departLane="best" departSpeed="max">
        <route edges="1054315844#0 555020953#0 653727191#0 653727192 -1065952538 -368175444#1 35260369#0 35260369#1"/>
    </vehicle>
    <vehicle id="bus24" type="bus_bus" depart="1188.98" departLane="best" departSpeed="max">
        <route edges="360438706#0 360438706#2 1392084244#2 712245744#0 653727191#0 653727192 -1065952538 -368175444#1 -853618779 -853619074 158467737#1 35260376#1 -338477202#0"/>
    </vehicle>
    <vehicle id="bus25" type="bus_bus" depart="1238.52" departLane="best">
        <route edges="-27258667 -249396544#3 -249396544#2 -249396544#1 712245744#0 653727191#0 653727192 -1065952538 -368175444#1 -853618779"/>
    </vehicle>
    <vehicle id="bus26" type="bus_bus" depart="1288.06" departLane="best" departSpeed="max">
        <route edges="-853618778#6 -853618778#5 -853618778#4 -853618778#3 -853618778#2 -853618778#0 853618779 368175444#1 1225556789 -1392084250 -653727191#1 -712245744#1 -564298126#9 -1392084244#1 -902535590"/>
    </vehicle>
    <vehicle id="bus27" type="bus_bus" depart="1337.60" departLane="best" departSpeed="max">
        <route edges="-338477202#2 -35260369#2 35260370 1225556789 -1392084250 -653727191#1 -712245744#1 -564298126#9 -1392084244#1 -902535590"/>
    </vehicle>
    <vehicle id="bus28" type="bus_bus" depart="1387.14" departLane="best" departSpeed="max">
        <route edges="902535590 1392084244#0 1392084244#2 712245744#0 653727191#0 653727192 -1065952538 -368175444#1 -853618779 853618778#0 853618778#2"/>
    </vehicle>
    <vehicle id="bus29" type="bus_bus" depart="1436.68" departLane="best">
        <route edges="-853618778#5 -853618778#4 -853618778#3 -853618778#2 -853618778#0 853618779 368175444#1 1225556789 -1392084250 -653727191#1 -712245744#1 -564298126#9 -1392084244#1 -1392084253"/>
    </vehicle>
    <vehicle id="bus30" type="bus_bus" depart="1486.22" departLane="best">
        <route edges="-961323605#0 -938252836 -249396544#1 712245744#0 653727191#0 653727192 -1065952538 -368175444#1 -853618779 853618778#0 853618778#2 853618778#3 853618778#4"/>
    </vehicle>
    <vehicle id="bus31" type="bus_bus" depart="1535.76" departLane="best" departSpeed="max">
        <route edges="1392084253 1392084244#0 1392084244#2 712245744#0 653727191#0 653727192 -1065952538 -368175444#1 -853618779 853618778#0 853618778#2 853618778#3 853618778#4 853618778#5 35260361#1"/>
    </vehicle>
    <vehicle id="bus32" type="bus_bus" depart="1585.30" departLane="best" departSpeed="max">
        <route edges="-27258652#1 -961323605#1 -961323605#0 -938252836 -249396544#1 712245744#0 653727191#0 653727192 -1065952538 -368175444#1 -853618779 -853619074 158467737#1 35260376#1 -338477202#0"/>
    </vehicle>
    <vehicle id="bus33" type="bus_bus" depart="1634.84" departLane="best" departSpeed="max">
        <route edges="27258652#0 -961323605#1 -961323605#0 -938252836 -249396544#1 712245744#0 653727191#0 653727192 -1065952538 -368175444#1 -853618779 853618778#0 853618778#2 853618778#3 29547818"/>
    </vehicle>
    <vehicle id="bus34" type="bus_bus" depart="1684.38" departLane="best" departSpeed="max">
        <route edges="-35260361#1 -853618778#5 -853618778#4 -853618778#3 -853618778#2 -853618778#0 853618779 368175444#1 1225556789 -1392084250 -653727191#1 -712245744#1 249396544#0 938252836 961323605#0 -27258667"/>
    </vehicle>
    <vehicle id="bus35" type="bus_bus" depart="1733.92" departLane="best" departSpeed="max">
        <route edges="564298145#0 922415126 653727191#0 653727192 -1065952538 -368175444#1 -853618779 853618778#0 853618778#2 853618778#3 853618778#4 853618778#5 -35260361#0 -35260368#1 -35260368#0"/>
    </vehicle>
    <vehicle id="bus36" type="bus_bus" depart="1783.46" departLane="best" departSpeed="max">
        <route edges="-853618778#6 -853618778#5 -853618778#4 -853618778#3 -853618778#2 -853618778#0 853618779 368175444#1 1225556789 -1392084250 -653727191#1 -712245744#1 249396544#0 938252836 961323605#0 961323605#1 27258652#1"/>
    </vehicle>
    <vehicle id="bus37" type="bus_bus" depart="1833.00" departLane="best" departSpeed="max">
        <route edges="338477202#0 -35260376#1"/>
    </vehicle>
    <vehicle id="bus38" type="bus_bus" depart="1882.54" departLane="best" departSpeed="max">
        <route edges="-27258652#1 -961323605#1 -961323605#0 -938252836 -249396544#1 712245744#0 653727191#0 653727192 -1065952538 -368175444#1 -853618779 853618778#0 853618778#2 29547816 -35260360#1 -35260360#0"/>
    </vehicle>
    <vehicle id="bus39" type="bus_bus" depart="1932.09" departLane="best" departSpeed="max">
        <route edges="360438707 360438706#2 1392084244#2 712245744#0 653727191#0 653727192 -1065952538 -368175444#1 35260369#0 35260369#1 35260369#2 338477202#2"/>
    </vehicle>
    <vehicle id="bus40" type="bus_bus" depart="1981.63" departLane="best">
        <route edges="-35260369#1 -35260369#0 368175444#1 1225556789 -1392084250 -653727191#1 -712245744#1 249396544#0 249396544#2 249396544#3 27258667"/>
    </vehicle>
    <vehicle id="bus41" type="bus_bus" depart="2031.17" departLane="best" departSpeed="max">
        <route edges="1217689481#0 -894912572 35260368#1 35260361#0 -853618778#5 -853618778#4 -853618778#3 -853618778#2 -853618778#0 853618779 368175444#1 1225556789 -1392084250 564298119#0"/>
    </vehicle>
    <vehicle id="bus42" type="bus_bus" depart="2080.71" departLane="best" departSpeed="max">
        <route edges="-853618778#6 -853618778#5 -853618778#4 -853618778#3 -853618778#2 -853618778#0 853618779 368175444#1 1225556789"/>
    </vehicle>
    <vehicle id="bus43" type="bus_bus" depart="2130.25" departLane="best" departSpeed="max">
        <route edges="-27258652#1 -961323605#1 -961323605#0 -938252836 -249396544#1 712245744#0 1326404883 564298119#0"/>
    </vehicle>
    <vehicle id="bus44" type="bus_bus" depart="2179.79" departLane="best" departSpeed="max">
        <route edges="360438706#0 360438706#2 1392084244#2 712245744#0 653727191#0 653727192 560538898#0"/>
    </vehicle>
    <vehicle id="bus45" type="bus_bus" depart="2229.33" departLane="best" departSpeed="max">
        <route edges="-35260361#1 -853618778#5 -853618778#4 -853618778#3 -853618778#2 -853618778#0 853618779 368175444#1 1225556789 -1392084250 -653727191#1 -712245744#1 249396544#0 938252836 961323605#0 961323605#1 -27258652#0"/>
    </vehicle>
    <vehicle id="bus46" type="bus_bus" depart="2278.87" departLane="best" departSpeed="max">
        <route edges="360438706#0 360438706#2 1392084244#2 712245744#0 653727191#0 653727192 560538898#0"/>
    </vehicle>
    <vehicle id="bus47" type="bus_bus" depart="2328.41" departLane="best">
        <route edges="35260997 853618779 368175444#1 1225556789 -1392084250 -653727191#1 -712245744#1 249396544#0 938252836 961323605#0 961323605#1 -27258652#0"/>
    </vehicle>
    <vehicle id="bus48" type="bus_bus" depart="2377.95" departLane="best" departSpeed="max">
        <route edges="902535590 1392084244#0 1392084244#2 712245744#0 653727191#0 653727192 -1065952538 -368175444#1 35260369#0 35260369#1 35260369#2"/>
    </vehicle>
    <vehicle id="bus49" type="bus_bus" depart="2427.49" departLane="best">
        <route edges="-853618778#4 -853618778#3 -853618778#2 -853618778#0 853618779 368175444#1 1225556789 -1392084250 -653727191#1 -712245744#1 249396544#0 938252836 -27258666"/>
    </vehicle>
    <vehicle id="bus50" type="bus_bus" depart="2477.03" departLane="best" departSpeed="max">
        <route edges="902535590 1392084244#0 1392084244#2 712245744#0 653727191#0 653727192 -1065952538 -368175444#1 -853618779 -853619074 158467737#1 35260376#1 -338477202#0"/>
    </vehicle>
    <vehicle id="bus51" type="bus_bus" depart="2526.57" departLane="best" departSpeed="max">
        <route edges="-27258697 922415126 653727191#0 653727192 -1065952538 -368175444#1 -853618779"/>
    </vehicle>
    <vehicle id="bus52" type="bus_bus" depart="2576.11" departLane="best">
        <route edges="27258667 -961323605#0 -938252836 -249396544#1 712245744#0 653727191#0 653727192 -1065952538 -368175444#1 -853618779 853618778#0 853618778#2 853618778#3 853618778#4 853618778#5 -35260361#0 -35260368#1 894912572 1217689481#1"/>
    </vehicle>
    <vehicle id="bus53" type="bus_bus" depart="2625.65" departLane="best">
        <route edges="-853618778#0 853618779 368175444#1 1225556789 -1392084250 -653727191#1 -712245744#1 249396544#0 938252836 961323605#0 961323605#1 27258652#1"/>
    </vehicle>
    <vehicle id="bus54" type="bus_bus" depart="2675.19" departLane="best" departSpeed="max">
        <route edges="338477202#0 -35260376#1 -35260376#0 35260997 853618779 368175444#1 1225556789 -1392084250 -653727191#1 -712245744#1 -564298126#9 -1030819534 -360438706#0"/>
    </vehicle>
    <vehicle id="bus55" type="bus_bus" depart="2724.74" departLane="best" departSpeed="max">
        <route edges="-853618778#6 -853618778#5 -853618778#4 -853618778#3 -853618778#2 -853618778#0 853618779 368175444#1 1225556789 -1392084250 -653727191#1 -712245744#1 249396544#0 938252836 961323605#0 961323605#1 27258652#1"/>
    </vehicle>
    <vehicle id="bus56" type="bus_bus" depart="2774.28" departLane="best" departSpeed="max">
        <route edges="1054315844#0 555020953#0 1326404883 564298119#0"/>
    </vehicle>
    <vehicle id="bus57" type="bus_bus" depart="2823.82" departLane="best" departSpeed="max">
        <route edges="-27258652#1 -961323605#1 -961323605#0 -938252836 -249396544#1 712245744#0 653727191#0 653727192 -1065952538 -368175444#1 -853618779 853618778#0 853618778#2 853618778#3 853618778#4 853618778#5 -35260361#0 -35260368#1 894912572 1217689481#1"/>
    </vehicle>
    <vehicle id="bus58" type="bus_bus" depart="2873.36" departLane="best" departSpeed="max">
        <route edges="338477202#0 -35260376#1 -35260376#0 35260997 853618778#0 -29547797#1 -35260360#2"/>
    </vehicle>
    <vehicle id="bus59" type="bus_bus" depart="2922.90" departLane="best" departSpeed="max">
        <route edges="-35260361#1 -853618778#5 -853618778#4 -853618778#3 -853618778#2 -853618778#0 853618779 368175444#1 1225556789 -1392084250 -653727191#1 -712245744#1 249396544#0 249396544#2"/>
    </vehicle>
    <vehicle id="bus60" type="bus_bus" depart="2972.44" departLane="best" departSpeed="max">
        <route edges="360438708 360438706#2 1392084244#2 712245744#0 653727191#0 653727192 -1065952538 -368175444#1 -853618779 -853619074 -158467737#0"/>
    </vehicle>
    <vehicle id="bus61" type="bus_bus" depart="3021.98" departLane="best" departSpeed="max">
        <route edges="-27258697 922415126 653727191#0 653727192 -1065952538 -368175444#1 -853618779 853618778#0 853618778#2 853618778#3 853618778#4"/>
    </vehicle>
    <vehicle id="bus62" type="bus_bus" depart="3071.52" departLane="best">
        <route edges="-338477202#1 -35260376#1 -35260376#0 35260997 853618778#0 853618778#2 853618778#3 853618778#4 853618778#5 853618778#6"/>
    </vehicle>
    <vehicle id="bus63" type="bus_bus" depart="3121.06" departLane="best">
        <route edges="-961323605#1 -961323605#0 -938252836 -249396544#1 712245744#0 653727191#0 653727192 -1065952538 -368175444#1 -853618779 853618778#0 35260374"/>
    </vehicle>
    <vehicle id="bus64" type="bus_bus" depart="3170.60" departLane="best" departSpeed="max">
        <route edges="338477202#0 -35260376#1 -35260376#0 35260997 853618779 368175444#1 1225556789 -1392084250 -653727191#1 -712245744#1 249396544#0 938252836"/>
    </vehicle>
    <vehicle id="bus65" type="bus_bus" depart="3220.14" departLane="best" departSpeed="max">
        <route edges="27258652#0 -961323605#1 -961323605#0 -938252836 -249396544#1 712245744#0 653727191#0 653727192 -1065952538 -368175444#1 -853618779 853618778#0 853618778#2 853618778#3 853618778#4 853618778#5 853618778#6"/>
    </vehicle>
    <vehicle id="bus66" type="bus_bus" depart="3269.68" departLane="best" departSpeed="max">
        <route edges="564298145#0 922415126 653727191#0 653727192 -1065952538 -368175444#1 -853618779 853618778#0 853618778#2 853618778#3 853618778#4 853618778#5 35260361#1"/>
    </vehicle>
    <vehicle id="bus67" type="bus_bus" depart="3319.22" departLane="best" departSpeed="max">
        <route edges="-27258652#1 -961323605#1 -961323605#0 -938252836 -249396544#1 712245744#0 653727191#0 653727192 -1065952538 -35260370"/>
    </vehicle>
    <vehicle id="bus68" type="bus_bus" depart="3368.76" departLane="best">
        <route edges="35260360#1 -29547816 -853618778#2 -853618778#0 853618779 368175444#1 1225556789 -1392084250 -653727191#1 -712245744#1 -564298126#9 -1392084244#1 -1392084253"/>
    </vehicle>
    <vehicle id="bus69" type="bus_bus" depart="3418.30" departLane="best" departSpeed="max">
        <route edges="-853618778#6 -853618778#5 -853618778#4 -853618778#3 -853618778#2 -853618778#0 853618779 368175444#1 1225556789 -1392084250 -653727191#1"/>
    </vehicle>
    <vehicle id="bus70" type="bus_bus" depart="3467.85" departLane="best" departSpeed="max">
        <route edges="-853618778#6 -853618778#5 -853618778#4 -853618778#3 -853618778#2 -853618778#0 853618779 368175444#1 1225556789 -1392084250 564298119#0"/>
    </vehicle>
    <vehicle id="bus71" type="bus_bus" depart="3517.39" departLane="best" departSpeed="max">
        <route edges="27258652#0 -961323605#1 -961323605#0 -938252836 -249396544#1 712245744#0 653727191#0 653727192 -1065952538 -368175444#1 35260369#0 35260369#1 35260369#2 338477202#2"/>
    </vehicle>
    <vehicle id="bus72" type="bus_bus" depart="3566.93" departLane="best" departSpeed="max">
        <route edges="360438708 360438706#2 1392084244#2 712245744#0 653727191#0 653727192 -1065952538 -368175444#1 -853618779 853618778#0 853618778#2 853618778#3 853618778#4 853618778#5 853618778#6"/>
    </vehicle>
</routes>
