<?xml version="1.0" encoding="UTF-8"?>

<!-- generated on 2025-10-02 19:16:46.397679 by randomTrips.py v1_24_0+0000-b72eb3fabc8
<configuration>
    <net-file value="osm.net.xml.gz"/>
    <output-trip-file value="osm.passenger.trips.xml"/>
    <route-file value="osm.passenger.rou.xml"/>
    <prefix value="veh"/>
    <trip-attributes value="departLane=&quot;best&quot;"/>
    <fringe-start-attributes value="departSpeed=&quot;max&quot;"/>
    <vehicle-class value="passenger"/>
    <lanes value="True"/>
    <fringe-factor value="5"/>
    <allow-fringe.min-length value="1000.0"/>
    <edge-permission value="passenger"/>
    <via-edge-types value="highway.motorway,highway.motorway_link,highway.trunk_link,highway.primary_link,highway.secondary_link,highway.tertiary_link"/>
    <seed value="44"/>
    <min-distance value="300.0"/>
    <min-distance.fringe value="10.0"/>
    <remove-loops value="True"/>
    <insertion-density value="12.0"/>
</configuration>
-->

<!-- generated on 2025-10-02 19:16:46 by Eclipse SUMO duarouter Version 1.24.0
<duarouterConfiguration xmlns:xsi="http://www.w3.org/2001/XMLSchema-instance" xsi:noNamespaceSchemaLocation="http://sumo.dlr.de/xsd/duarouterConfiguration.xsd">

    <input>
        <net-file value="osm.net.xml.gz"/>
        <route-files value="osm.passenger.trips.xml"/>
    </input>

    <output>
        <output-file value="osm.passenger.rou.xml"/>
        <alternatives-output value="NUL"/>
    </output>

    <processing>
        <remove-loops value="true"/>
    </processing>

    <time>
        <begin value="0.0"/>
        <end value="3600.0"/>
    </time>

    <report>
        <no-warnings value="true"/>
        <ignore-errors value="true"/>
        <no-step-log value="true"/>
    </report>

</duarouterConfiguration>
-->

<routes xmlns:xsi="http://www.w3.org/2001/XMLSchema-instance" xsi:noNamespaceSchemaLocation="http://sumo.dlr.de/xsd/routes_file.xsd">
    <vType id="veh_passenger" vClass="passenger"/>
    <vehicle id="veh0" type="veh_passenger" depart="0.00" departLane="best" departSpeed="max">
        <route edges="1054315844#0 555020953#0 1326404883"/>
    </vehicle>
    <vehicle id="veh1" type="veh_passenger" depart="71.23" departLane="best" departSpeed="max">
        <route edges="-1392084250 -712245744#1 -564298126#9"/>
    </vehicle>
    <vehicle id="veh2" type="veh_passenger" depart="142.47" departLane="best" departSpeed="max">
        <route edges="-1392084250 -712245744#1 -564298126#9"/>
    </vehicle>
    <vehicle id="veh3" type="veh_passenger" depart="213.70" departLane="best" departSpeed="max">
        <route edges="1054315844#0 555020953#0 1326404883"/>
    </vehicle>
    <vehicle id="veh4" type="veh_passenger" depart="284.93" departLane="best" departSpeed="max">
        <route edges="-1392084250 -712245744#1 -564298126#9"/>
    </vehicle>
    <vehicle id="veh5" type="veh_passenger" depart="356.16" departLane="best" departSpeed="max">
        <route edges="1392084244#0 712245744#0"/>
    </vehicle>
    <vehicle id="veh6" type="veh_passenger" depart="427.40" departLane="best" departSpeed="max">
        <route edges="-1392084250 1054315845#0"/>
    </vehicle>
    <vehicle id="veh7" type="veh_passenger" depart="498.63" departLane="best" departSpeed="max">
        <route edges="1392084244#0 712245744#0 653727191#0"/>
    </vehicle>
    <vehicle id="veh8" type="veh_passenger" depart="569.86" departLane="best" departSpeed="max">
        <route edges="-1392084250 1054315845#0"/>
    </vehicle>
    <vehicle id="veh9" type="veh_passenger" depart="641.09" departLane="best" departSpeed="max">
        <route edges="-1392084250 -712245744#1 -564298126#9"/>
    </vehicle>
    <vehicle id="veh10" type="veh_passenger" depart="712.33" departLane="best" departSpeed="max">
        <route edges="1392084244#0 712245744#0 1326404883"/>
    </vehicle>
    <vehicle id="veh11" type="veh_passenger" depart="783.56" departLane="best" departSpeed="max">
        <route edges="1054315844#0 555020953#0 653727191#0"/>
    </vehicle>
    <vehicle id="veh12" type="veh_passenger" depart="854.79" departLane="best" departSpeed="max">
        <route edges="564298145 -712245744#1 -564298126#9"/>
    </vehicle>
    <vehicle id="veh13" type="veh_passenger" depart="926.02" departLane="best" departSpeed="max">
        <route edges="-1392084250 1054315845#0"/>
    </vehicle>
    <vehicle id="veh14" type="veh_passenger" depart="997.26" departLane="best" departSpeed="max">
        <route edges="-1392084250 -712245744#1 -564298126#9"/>
    </vehicle>
    <vehicle id="veh15" type="veh_passenger" depart="1068.49" departLane="best" departSpeed="max">
        <route edges="1054315844#0 555020953#0 653727191#0"/>
    </vehicle>
    <vehicle id="veh16" type="veh_passenger" depart="1139.72" departLane="best">
        <route edges="-712245744#1 -564298126#9"/>
    </vehicle>
    <vehicle id="veh17" type="veh_passenger" depart="1210.96" departLane="best">
        <route edges="-712245744#1 -564298126#9"/>
    </vehicle>
    <vehicle id="veh18" type="veh_passenger" depart="1282.19" departLane="best" departSpeed="max">
        <route edges="1392084244#0 712245744#0 653727191#0"/>
    </vehicle>
    <vehicle id="veh19" type="veh_passenger" depart="1353.42" departLane="best" departSpeed="max">
        <route edges="1392084244#0 712245744#0 1326404883"/>
    </vehicle>
    <vehicle id="veh20" type="veh_passenger" depart="1424.65" departLane="best" departSpeed="max">
        <route edges="1392084244#0 712245744#0 653727191#0"/>
    </vehicle>
    <vehicle id="veh21" type="veh_passenger" depart="1495.89" departLane="best" departSpeed="max">
        <route edges="-1392084250 1054315845#0"/>
    </vehicle>
    <vehicle id="veh22" type="veh_passenger" depart="1567.12" departLane="best" departSpeed="max">
        <route edges="564298145 1054315845#0"/>
    </vehicle>
    <vehicle id="veh23" type="veh_passenger" depart="1638.35" departLane="best" departSpeed="max">
        <route edges="1392084244#0 712245744#0 653727191#0"/>
    </vehicle>
    <vehicle id="veh24" type="veh_passenger" depart="1709.58" departLane="best" departSpeed="max">
        <route edges="-1392084250 1054315845#0"/>
    </vehicle>
    <vehicle id="veh25" type="veh_passenger" depart="1780.82" departLane="best" departSpeed="max">
        <route edges="1392084244#0 712245744#0 1326404883"/>
    </vehicle>
    <vehicle id="veh26" type="veh_passenger" depart="1852.05" departLane="best" departSpeed="max">
        <route edges="1392084244#0 712245744#0 653727191#0"/>
    </vehicle>
    <vehicle id="veh27" type="veh_passenger" depart="1923.28" departLane="best" departSpeed="max">
        <route edges="564298145 1054315845#0"/>
    </vehicle>
    <vehicle id="veh28" type="veh_passenger" depart="1994.52" departLane="best">
        <route edges="712245744#0 653727191#0"/>
    </vehicle>
    <vehicle id="veh29" type="veh_passenger" depart="2065.75" departLane="best" departSpeed="max">
        <route edges="564298145 -712245744#1 -564298126#9"/>
    </vehicle>
    <vehicle id="veh30" type="veh_passenger" depart="2136.98" departLane="best" departSpeed="max">
        <route edges="1054315844#0 555020953#0 1326404883"/>
    </vehicle>
    <vehicle id="veh31" type="veh_passenger" depart="2208.21" departLane="best" departSpeed="max">
        <route edges="-1392084250 -712245744#1 -564298126#9"/>
    </vehicle>
    <vehicle id="veh32" type="veh_passenger" depart="2279.45" departLane="best" departSpeed="max">
        <route edges="-1392084250 -712245744#1 -564298126#9"/>
    </vehicle>
    <vehicle id="veh33" type="veh_passenger" depart="2350.68" departLane="best" departSpeed="max">
        <route edges="1392084244#0 712245744#0 1326404883"/>
    </vehicle>
    <vehicle id="veh34" type="veh_passenger" depart="2421.91" departLane="best" departSpeed="max">
        <route edges="1054315844#0 555020953#0 1326404883"/>
    </vehicle>
    <vehicle id="veh35" type="veh_passenger" depart="2493.14" departLane="best" departSpeed="max">
        <route edges="564298145 -712245744#1 -564298126#9"/>
    </vehicle>
    <vehicle id="veh36" type="veh_passenger" depart="2564.38" departLane="best" departSpeed="max">
        <route edges="564298145 -712245744#1 -564298126#9"/>
    </vehicle>
    <vehicle id="veh37" type="veh_passenger" depart="2635.61" departLane="best" departSpeed="max">
        <route edges="-1392084250 -712245744#1 -564298126#9"/>
    </vehicle>
    <vehicle id="veh38" type="veh_passenger" depart="2706.84" departLane="best" departSpeed="max">
        <route edges="1392084244#0 712245744#0 653727191#0"/>
    </vehicle>
    <vehicle id="veh39" type="veh_passenger" depart="2778.07" departLane="best" departSpeed="max">
        <route edges="564298145 -712245744#1 -564298126#9"/>
    </vehicle>
    <vehicle id="veh40" type="veh_passenger" depart="2849.31" departLane="best" departSpeed="max">
        <route edges="1054315844#0 555020953#0 653727191#0"/>
    </vehicle>
    <vehicle id="veh41" type="veh_passenger" depart="2920.54" departLane="best" departSpeed="max">
        <route edges="-1392084250 1054315845#0"/>
    </vehicle>
    <vehicle id="veh42" type="veh_passenger" depart="2991.77" departLane="best" departSpeed="max">
        <route edges="-1392084250 1054315845#0"/>
    </vehicle>
    <vehicle id="veh43" type="veh_passenger" depart="3063.01" departLane="best" departSpeed="max">
        <route edges="1054315844#0 555020953#0 653727191#0"/>
    </vehicle>
    <vehicle id="veh44" type="veh_passenger" depart="3134.24" departLane="best" departSpeed="max">
        <route edges="1054315844#0 555020953#0 1326404883"/>
    </vehicle>
    <vehicle id="veh45" type="veh_passenger" depart="3205.47" departLane="best" departSpeed="max">
        <route edges="564298145 1054315845#0"/>
    </vehicle>
    <vehicle id="veh46" type="veh_passenger" depart="3276.70" departLane="best" departSpeed="max">
        <route edges="1392084244#0 712245744#0 1326404883"/>
    </vehicle>
    <vehicle id="veh47" type="veh_passenger" depart="3347.94" departLane="best" departSpeed="max">
        <route edges="-1392084250 -712245744#1 -564298126#9"/>
    </vehicle>
    <vehicle id="veh48" type="veh_passenger" depart="3419.17" departLane="best" departSpeed="max">
        <route edges="-1392084250 1054315845#0"/>
    </vehicle>
    <vehicle id="veh49" type="veh_passenger" depart="3490.40" departLane="best" departSpeed="max">
        <route edges="1054315844#0 555020953#0 653727191#0"/>
    </vehicle>
    <vehicle id="veh50" type="veh_passenger" depart="3561.63" departLane="best" departSpeed="max">
        <route edges="564298145 1054315845#0"/>
    </vehicle>
</routes>
