<?xml version="1.0" encoding="UTF-8"?>

<!-- generated on 2025-09-03 01:04:10 by Eclipse SUMO duarouter Version 1.24.0
<duarouterConfiguration xmlns:xsi="http://www.w3.org/2001/XMLSchema-instance" xsi:noNamespaceSchemaLocation="http://sumo.dlr.de/xsd/duarouterConfiguration.xsd">

    <input>
        <net-file value="C:\Users\kgaqu\OneDrive\Documents\4th Year\Capstone 2\v10\backend\networks\jollibee_molino\jollibee_molino.net.xml"/>
        <route-files value="C:\Users\kgaqu\OneDrive\Documents\4th Year\Capstone 2\v10\backend\networks\jollibee_molino\routes\osm.bus.trips.xml"/>
    </input>

    <output>
        <output-file value="C:\Users\kgaqu\OneDrive\Documents\4th Year\Capstone 2\v10\backend\networks\jollibee_molino\routes\osm.bus.rou.xml"/>
    </output>

    <report>
        <ignore-errors value="true"/>
    </report>

</duarouterConfiguration>
-->

<routes xmlns:xsi="http://www.w3.org/2001/XMLSchema-instance" xsi:noNamespaceSchemaLocation="http://sumo.dlr.de/xsd/routes_file.xsd">
    <vType id="bus_bus" vClass="bus"/>
    <vehicle id="bus0" type="bus_bus" depart="0.00" departLane="best" departSpeed="max">
        <route edges="-130043752#1 130046557#0 -183543979#1 109972547#0"/>
    </vehicle>
    <vehicle id="bus1" type="bus_bus" depart="83.74" departLane="best" departSpeed="max">
        <route edges="109984882 130046557#0"/>
    </vehicle>
    <vehicle id="bus2" type="bus_bus" depart="167.48" departLane="best" departSpeed="max">
        <route edges="-130043752#1 130046557#0 -183543979#1 109972547#0"/>
    </vehicle>
    <vehicle id="bus3" type="bus_bus" depart="251.22" departLane="best">
        <route edges="-183543979#1 820090516#0 109971518#0 863419975"/>
    </vehicle>
    <vehicle id="bus4" type="bus_bus" depart="334.95" departLane="best" departSpeed="max">
        <route edges="-5031527 820090516#0 109971518#0 130043752#0"/>
    </vehicle>
    <vehicle id="bus5" type="bus_bus" depart="418.69" departLane="best" departSpeed="max">
        <route edges="-5031527 -282194769#5"/>
    </vehicle>
    <vehicle id="bus6" type="bus_bus" depart="502.43" departLane="best" departSpeed="max">
        <route edges="282194769#0 820090516#0"/>
    </vehicle>
    <vehicle id="bus7" type="bus_bus" depart="586.17" departLane="best">
        <route edges="-183543979#1 -282194769#5"/>
    </vehicle>
    <vehicle id="bus8" type="bus_bus" depart="669.91" departLane="best">
        <route edges="-183543979#1 -282194769#5"/>
    </vehicle>
    <vehicle id="bus9" type="bus_bus" depart="753.65" departLane="best" departSpeed="max">
        <route edges="282194769#0 820090516#0 109971505"/>
    </vehicle>
    <vehicle id="bus10" type="bus_bus" depart="837.38" departLane="best" departSpeed="max">
        <route edges="282194769#0 109972547#0"/>
    </vehicle>
    <vehicle id="bus11" type="bus_bus" depart="921.12" departLane="best">
        <route edges="109971518#0 863419975"/>
    </vehicle>
    <vehicle id="bus12" type="bus_bus" depart="1004.86" departLane="best" departSpeed="max">
        <route edges="109984882 130046557#0 -183543979#1 -282194769#5"/>
    </vehicle>
    <vehicle id="bus13" type="bus_bus" depart="1088.60" departLane="best" departSpeed="max">
        <route edges="109984882 130046557#0"/>
    </vehicle>
    <vehicle id="bus14" type="bus_bus" depart="1172.34" departLane="best" departSpeed="max">
        <route edges="282194769#0 820090516#0 109971505"/>
    </vehicle>
    <vehicle id="bus15" type="bus_bus" depart="1256.08" departLane="best" departSpeed="max">
        <route edges="-5031527 820090516#0 109971518#0 130043752#0"/>
    </vehicle>
    <vehicle id="bus16" type="bus_bus" depart="1339.82" departLane="best">
        <route edges="130046557#0 -183543979#1 -282194769#5"/>
    </vehicle>
    <vehicle id="bus17" type="bus_bus" depart="1423.55" departLane="best" departSpeed="max">
        <route edges="109984882 130046557#0 109971505"/>
    </vehicle>
    <vehicle id="bus18" type="bus_bus" depart="1507.29" departLane="best" departSpeed="max">
        <route edges="-183532951#2 109971518#0 130043752#0"/>
    </vehicle>
    <vehicle id="bus19" type="bus_bus" depart="1591.03" departLane="best" departSpeed="max">
        <route edges="-130043752#1 130046557#0 -183543979#1 109972547#0"/>
    </vehicle>
    <vehicle id="bus20" type="bus_bus" depart="1674.77" departLane="best" departSpeed="max">
        <route edges="109984882 130046557#0 -183543979#1 -282194769#5"/>
    </vehicle>
    <vehicle id="bus21" type="bus_bus" depart="1758.51" departLane="best" departSpeed="max">
        <route edges="-130043752#1 130046557#0 -183543979#1 -282194769#5"/>
    </vehicle>
    <vehicle id="bus22" type="bus_bus" depart="1842.25" departLane="best" departSpeed="max">
        <route edges="-130043752#1 130046557#0 -183543979#1 109972547#0"/>
    </vehicle>
    <vehicle id="bus23" type="bus_bus" depart="1925.98" departLane="best" departSpeed="max">
        <route edges="-5031527 -282194769#5"/>
    </vehicle>
    <vehicle id="bus24" type="bus_bus" depart="2009.72" departLane="best">
        <route edges="820090516#0 -183543979#1 -282194769#5"/>
    </vehicle>
    <vehicle id="bus25" type="bus_bus" depart="2093.46" departLane="best" departSpeed="max">
        <route edges="282194769#0 820090516#0 109971518#0 863419975"/>
    </vehicle>
    <vehicle id="bus26" type="bus_bus" depart="2177.20" departLane="best" departSpeed="max">
        <route edges="-183532951#2 109971518#0 130043752#0"/>
    </vehicle>
    <vehicle id="bus27" type="bus_bus" depart="2260.94" departLane="best" departSpeed="max">
        <route edges="-5031527 820090516#0 109971518#0 863419975"/>
    </vehicle>
    <vehicle id="bus28" type="bus_bus" depart="2344.68" departLane="best" departSpeed="max">
        <route edges="282194769#0 820090516#0 109971518#0"/>
    </vehicle>
    <vehicle id="bus29" type="bus_bus" depart="2428.42" departLane="best" departSpeed="max">
        <route edges="109984882 130046557#0 -183543979#1 -282194769#5"/>
    </vehicle>
    <vehicle id="bus30" type="bus_bus" depart="2512.15" departLane="best" departSpeed="max">
        <route edges="-183532951#2 109971518#0 863419975"/>
    </vehicle>
    <vehicle id="bus31" type="bus_bus" depart="2595.89" departLane="best" departSpeed="max">
        <route edges="-5031527 820090516#0 109971518#0 130043752#0"/>
    </vehicle>
    <vehicle id="bus32" type="bus_bus" depart="2679.63" departLane="best" departSpeed="max">
        <route edges="-183532951#2 -183543979#1 -282194769#5"/>
    </vehicle>
    <vehicle id="bus33" type="bus_bus" depart="2763.37" departLane="best" departSpeed="max">
        <route edges="282194769#0 820090516#0 109971518#0 130043752#0"/>
    </vehicle>
    <vehicle id="bus34" type="bus_bus" depart="2847.11" departLane="best" departSpeed="max">
        <route edges="282194769#0 820090516#0 109971518#0 130043752#0"/>
    </vehicle>
    <vehicle id="bus35" type="bus_bus" depart="2930.85" departLane="best" departSpeed="max">
        <route edges="282194769#0 820090516#0 109971505"/>
    </vehicle>
    <vehicle id="bus36" type="bus_bus" depart="3014.58" departLane="best" departSpeed="max">
        <route edges="-5031527 820090516#0 109971518#0 863419975"/>
    </vehicle>
    <vehicle id="bus37" type="bus_bus" depart="3098.32" departLane="best" departSpeed="max">
        <route edges="-183532951#2 -183543979#1 109972547#0"/>
    </vehicle>
    <vehicle id="bus38" type="bus_bus" depart="3182.06" departLane="best" departSpeed="max">
        <route edges="-5031527 820090516#0 109971518#0 130043752#0"/>
    </vehicle>
    <vehicle id="bus39" type="bus_bus" depart="3265.80" departLane="best" departSpeed="max">
        <route edges="-5031527 820090516#0 109971518#0 863419975"/>
    </vehicle>
    <vehicle id="bus40" type="bus_bus" depart="3349.54" departLane="best" departSpeed="max">
        <route edges="282194769#0 820090516#0 109971518#0 863419975"/>
    </vehicle>
    <vehicle id="bus41" type="bus_bus" depart="3433.28" departLane="best" departSpeed="max">
        <route edges="109984882 130046557#0 -183543979#1 -282194769#5"/>
    </vehicle>
    <vehicle id="bus42" type="bus_bus" depart="3517.02" departLane="best" departSpeed="max">
        <route edges="109984882 130046557#0 -183543979#1 -282194769#5"/>
    </vehicle>
</routes>
