<?xml version="1.0" encoding="UTF-8"?>

<!-- generated on 2025-09-03 00:53:06.340201 by osmWebWizard.py v1_24_0+0000-b72eb3fabc8
<configuration>
    <net-file value="C:\Users\kgaqu\OneDrive\Documents\4th Year\Capstone 2\v10\osm_importer\osm_scenarios\2025-09-03-00-53-02\osm.net.xml.gz"/>
    <output-trip-file value="C:\Users\kgaqu\OneDrive\Documents\4th Year\Capstone 2\v10\osm_importer\osm_scenarios\2025-09-03-00-53-02\osm.truck.trips.xml"/>
    <route-file value="C:\Users\kgaqu\OneDrive\Documents\4th Year\Capstone 2\v10\osm_importer\osm_scenarios\2025-09-03-00-53-02\osm.truck.rou.xml"/>
    <prefix value="truck"/>
    <trip-attributes value="departLane=&quot;best&quot;"/>
    <fringe-start-attributes value="departSpeed=&quot;max&quot;"/>
    <vehicle-class value="truck"/>
    <fringe-factor value="5"/>
    <edge-permission value="truck"/>
    <via-edge-types value="highway.motorway,highway.motorway_link,highway.trunk_link,highway.primary_link,highway.secondary_link,highway.tertiary_link"/>
    <seed value="47"/>
    <min-distance value="600.0"/>
    <min-distance.fringe value="10.0"/>
    <remove-loops value="True"/>
    <insertion-density value="8.0"/>
</configuration>
-->

<routes xmlns:xsi="http://www.w3.org/2001/XMLSchema-instance" xsi:noNamespaceSchemaLocation="http://sumo.dlr.de/xsd/routes_file.xsd">
    <vType id="truck_truck" vClass="truck"/>
    <trip id="truck0" depart="0.00" from="-5031527" to="109971505" departLane="best" type="truck_truck" departSpeed="max"/>
    <trip id="truck1" depart="41.87" from="-5031527" to="109971518#0" departLane="best" type="truck_truck" departSpeed="max"/>
    <trip id="truck2" depart="83.74" from="-130043752#1" to="109972547#0" departLane="best" type="truck_truck" departSpeed="max"/>
    <trip id="truck3" depart="125.61" from="-130043752#1" to="-282194769#5" departLane="best" type="truck_truck" departSpeed="max"/>
    <trip id="truck4" depart="167.48" from="-183532951#2" to="863419975" departLane="best" type="truck_truck" departSpeed="max"/>
    <trip id="truck5" depart="209.35" from="282194769#0" to="863419975" departLane="best" type="truck_truck" departSpeed="max"/>
    <trip id="truck6" depart="251.22" from="-5031527" to="109971505" departLane="best" type="truck_truck" departSpeed="max"/>
    <trip id="truck7" depart="293.08" from="282194769#0" to="-183543979#1" departLane="best" type="truck_truck" departSpeed="max"/>
    <trip id="truck8" depart="334.95" from="109984882" to="109972547#0" departLane="best" type="truck_truck" departSpeed="max"/>
    <trip id="truck9" depart="376.82" from="282194769#0" to="863419975" departLane="best" type="truck_truck" departSpeed="max"/>
    <trip id="truck10" depart="418.69" from="-130043752#1" to="109971505" departLane="best" type="truck_truck" departSpeed="max"/>
    <trip id="truck11" depart="460.56" from="-5031527" to="109971505" departLane="best" type="truck_truck" departSpeed="max"/>
    <trip id="truck12" depart="502.43" from="282194769#0" to="863419975" departLane="best" type="truck_truck" departSpeed="max"/>
    <trip id="truck13" depart="544.30" from="-183532951#2" to="130043752#0" departLane="best" type="truck_truck" departSpeed="max"/>
    <trip id="truck14" depart="586.17" from="109984882" to="109971505" departLane="best" type="truck_truck" departSpeed="max"/>
    <trip id="truck15" depart="628.04" from="-5031527" to="-282194769#5" departLane="best" type="truck_truck" departSpeed="max"/>
    <trip id="truck16" depart="669.91" from="-183532951#2" to="130043752#0" departLane="best" type="truck_truck" departSpeed="max"/>
    <trip id="truck17" depart="711.78" from="282194769#0" to="130043752#0" departLane="best" type="truck_truck" departSpeed="max"/>
    <trip id="truck18" depart="753.65" from="109984882" to="109971505" departLane="best" type="truck_truck" departSpeed="max"/>
    <trip id="truck19" depart="795.52" from="-5031527" to="863419975" departLane="best" type="truck_truck" departSpeed="max"/>
    <trip id="truck20" depart="837.38" from="-5031527" to="863419975" departLane="best" type="truck_truck" departSpeed="max"/>
    <trip id="truck21" depart="879.25" from="-130043752#1" to="109971505" departLane="best" type="truck_truck" departSpeed="max"/>
    <trip id="truck22" depart="921.12" from="282194769#0" to="109972547#0" departLane="best" type="truck_truck" departSpeed="max"/>
    <trip id="truck23" depart="962.99" from="130046557#0" to="109972547#0" departLane="best" type="truck_truck"/>
    <trip id="truck24" depart="1004.86" from="282194769#0" to="-183543979#1" departLane="best" type="truck_truck" departSpeed="max"/>
    <trip id="truck25" depart="1046.73" from="-183532951#2" to="130043752#0" departLane="best" type="truck_truck" departSpeed="max"/>
    <trip id="truck26" depart="1088.60" from="-5031527" to="130043752#0" departLane="best" type="truck_truck" departSpeed="max"/>
    <trip id="truck27" depart="1130.47" from="-5031527" to="130043752#0" departLane="best" type="truck_truck" departSpeed="max"/>
    <trip id="truck28" depart="1172.34" from="282194769#0" to="109971505" departLane="best" type="truck_truck" departSpeed="max"/>
    <trip id="truck29" depart="1214.21" from="-130043752#1" to="109971505" departLane="best" type="truck_truck" departSpeed="max"/>
    <trip id="truck30" depart="1256.08" from="-183543979#1" to="863419975" departLane="best" type="truck_truck"/>
    <trip id="truck31" depart="1297.95" from="282194769#0" to="130043752#0" departLane="best" type="truck_truck" departSpeed="max"/>
    <trip id="truck32" depart="1339.82" from="-183532951#2" to="863419975" departLane="best" type="truck_truck" departSpeed="max"/>
    <trip id="truck33" depart="1381.68" from="-130043752#1" to="-282194769#5" departLane="best" type="truck_truck" departSpeed="max"/>
    <trip id="truck34" depart="1423.55" from="-5031527" to="109971505" departLane="best" type="truck_truck" departSpeed="max"/>
    <trip id="truck35" depart="1465.42" from="-130043752#1" to="-282194769#5" departLane="best" type="truck_truck" departSpeed="max"/>
    <trip id="truck36" depart="1507.29" from="-130043752#1" to="-282194769#5" departLane="best" type="truck_truck" departSpeed="max"/>
    <trip id="truck37" depart="1549.16" from="-130043752#1" to="-282194769#5" departLane="best" type="truck_truck" departSpeed="max"/>
    <trip id="truck38" depart="1591.03" from="282194769#0" to="863419975" departLane="best" type="truck_truck" departSpeed="max"/>
    <trip id="truck39" depart="1632.90" from="-183532951#2" to="863419975" departLane="best" type="truck_truck" departSpeed="max"/>
    <trip id="truck40" depart="1674.77" from="282194769#0" to="109971505" departLane="best" type="truck_truck" departSpeed="max"/>
    <trip id="truck41" depart="1716.64" from="-130043752#1" to="-282194769#5" departLane="best" type="truck_truck" departSpeed="max"/>
    <trip id="truck42" depart="1758.51" from="-130043752#1" to="-282194769#5" departLane="best" type="truck_truck" departSpeed="max"/>
    <trip id="truck43" depart="1800.38" from="-5031527" to="109971505" departLane="best" type="truck_truck" departSpeed="max"/>
    <trip id="truck44" depart="1842.25" from="282194769#0" to="109972547#0" departLane="best" type="truck_truck" departSpeed="max"/>
    <trip id="truck45" depart="1884.12" from="-130043752#1" to="109972547#0" departLane="best" type="truck_truck" departSpeed="max"/>
    <trip id="truck46" depart="1925.98" from="109971518#0" to="863419975" departLane="best" type="truck_truck"/>
    <trip id="truck47" depart="1967.85" from="-5031527" to="109971505" departLane="best" type="truck_truck" departSpeed="max"/>
    <trip id="truck48" depart="2009.72" from="-183532951#2" to="863419975" departLane="best" type="truck_truck" departSpeed="max"/>
    <trip id="truck49" depart="2051.59" from="-5031527" to="-282194769#5" departLane="best" type="truck_truck" departSpeed="max"/>
    <trip id="truck50" depart="2093.46" from="820090516#0" to="-282194769#5" departLane="best" type="truck_truck"/>
    <trip id="truck51" depart="2135.33" from="282194769#0" to="109972547#0" departLane="best" type="truck_truck" departSpeed="max"/>
    <trip id="truck52" depart="2177.20" from="130046557#0" to="109972547#0" departLane="best" type="truck_truck"/>
    <trip id="truck53" depart="2219.07" from="-130043752#1" to="109971505" departLane="best" type="truck_truck" departSpeed="max"/>
    <trip id="truck54" depart="2260.94" from="-130043752#1" to="-282194769#5" departLane="best" type="truck_truck" departSpeed="max"/>
    <trip id="truck55" depart="2302.81" from="-183532951#2" to="109972547#0" departLane="best" type="truck_truck" departSpeed="max"/>
    <trip id="truck56" depart="2344.68" from="109984882" to="-282194769#5" departLane="best" type="truck_truck" departSpeed="max"/>
    <trip id="truck57" depart="2386.55" from="-183532951#2" to="109972547#0" departLane="best" type="truck_truck" departSpeed="max"/>
    <trip id="truck58" depart="2428.42" from="282194769#0" to="130043752#0" departLane="best" type="truck_truck" departSpeed="max"/>
    <trip id="truck59" depart="2470.28" from="109984882" to="109972547#0" departLane="best" type="truck_truck" departSpeed="max"/>
    <trip id="truck60" depart="2512.15" from="130046557#0" to="109972547#0" departLane="best" type="truck_truck"/>
    <trip id="truck61" depart="2554.02" from="-5031527" to="130043752#0" departLane="best" type="truck_truck" departSpeed="max"/>
    <trip id="truck62" depart="2595.89" from="282194769#0" to="130043752#0" departLane="best" type="truck_truck" departSpeed="max"/>
    <trip id="truck63" depart="2637.76" from="-5031527" to="109971505" departLane="best" type="truck_truck" departSpeed="max"/>
    <trip id="truck64" depart="2679.63" from="282194769#0" to="109972547#0" departLane="best" type="truck_truck" departSpeed="max"/>
    <trip id="truck65" depart="2721.50" from="-183543979#1" to="-282194769#5" departLane="best" type="truck_truck"/>
    <trip id="truck66" depart="2763.37" from="282194769#0" to="863419975" departLane="best" type="truck_truck" departSpeed="max"/>
    <trip id="truck67" depart="2805.24" from="109984882" to="109971505" departLane="best" type="truck_truck" departSpeed="max"/>
    <trip id="truck68" depart="2847.11" from="-183543979#1" to="863419975" departLane="best" type="truck_truck"/>
    <trip id="truck69" depart="2888.98" from="282194769#0" to="130043752#0" departLane="best" type="truck_truck" departSpeed="max"/>
    <trip id="truck70" depart="2930.85" from="-183532951#2" to="863419975" departLane="best" type="truck_truck" departSpeed="max"/>
    <trip id="truck71" depart="2972.72" from="282194769#0" to="863419975" departLane="best" type="truck_truck" departSpeed="max"/>
    <trip id="truck72" depart="3014.58" from="-183532951#2" to="130043752#0" departLane="best" type="truck_truck" departSpeed="max"/>
    <trip id="truck73" depart="3056.45" from="-130043752#1" to="109972547#0" departLane="best" type="truck_truck" departSpeed="max"/>
    <trip id="truck74" depart="3098.32" from="-5031527" to="130043752#0" departLane="best" type="truck_truck" departSpeed="max"/>
    <trip id="truck75" depart="3140.19" from="282194769#0" to="109971505" departLane="best" type="truck_truck" departSpeed="max"/>
    <trip id="truck76" depart="3182.06" from="-183532951#2" to="863419975" departLane="best" type="truck_truck" departSpeed="max"/>
    <trip id="truck77" depart="3223.93" from="282194769#0" to="109972547#0" departLane="best" type="truck_truck" departSpeed="max"/>
    <trip id="truck78" depart="3265.80" from="-5031527" to="109971505" departLane="best" type="truck_truck" departSpeed="max"/>
    <trip id="truck79" depart="3307.67" from="282194769#0" to="863419975" departLane="best" type="truck_truck" departSpeed="max"/>
    <trip id="truck80" depart="3349.54" from="282194769#0" to="130043752#0" departLane="best" type="truck_truck" departSpeed="max"/>
    <trip id="truck81" depart="3391.41" from="109984882" to="109971505" departLane="best" type="truck_truck" departSpeed="max"/>
    <trip id="truck82" depart="3433.28" from="-183532951#2" to="-282194769#5" departLane="best" type="truck_truck" departSpeed="max"/>
    <trip id="truck83" depart="3475.15" from="-5031527" to="109971505" departLane="best" type="truck_truck" departSpeed="max"/>
    <trip id="truck84" depart="3517.02" from="-183532951#2" to="130043752#0" departLane="best" type="truck_truck" departSpeed="max"/>
    <trip id="truck85" depart="3558.88" from="-130043752#1" to="-282194769#5" departLane="best" type="truck_truck" departSpeed="max"/>
</routes>
