<?xml version="1.0" encoding="UTF-8"?>

<!-- generated on 2025-09-03 00:53:05.407982 by osmWebWizard.py v1_24_0+0000-b72eb3fabc8
<configuration>
    <net-file value="C:\Users\kgaqu\OneDrive\Documents\4th Year\Capstone 2\v10\osm_importer\osm_scenarios\2025-09-03-00-53-02\osm.net.xml.gz"/>
    <output-trip-file value="C:\Users\kgaqu\OneDrive\Documents\4th Year\Capstone 2\v10\osm_importer\osm_scenarios\2025-09-03-00-53-02\osm.bus.trips.xml"/>
    <route-file value="C:\Users\kgaqu\OneDrive\Documents\4th Year\Capstone 2\v10\osm_importer\osm_scenarios\2025-09-03-00-53-02\osm.bus.rou.xml"/>
    <prefix value="bus"/>
    <trip-attributes value="departLane=&quot;best&quot;"/>
    <fringe-start-attributes value="departSpeed=&quot;max&quot;"/>
    <vehicle-class value="bus"/>
    <fringe-factor value="5"/>
    <edge-permission value="bus"/>
    <via-edge-types value="highway.motorway,highway.motorway_link,highway.trunk_link,highway.primary_link,highway.secondary_link,highway.tertiary_link"/>
    <seed value="43"/>
    <min-distance value="600.0"/>
    <min-distance.fringe value="10.0"/>
    <remove-loops value="True"/>
    <insertion-density value="4.0"/>
</configuration>
-->

<routes xmlns:xsi="http://www.w3.org/2001/XMLSchema-instance" xsi:noNamespaceSchemaLocation="http://sumo.dlr.de/xsd/routes_file.xsd">
    <vType id="bus_bus" vClass="bus"/>
    <trip id="bus0" depart="0.00" from="-130043752#1" to="109972547#0" departLane="best" type="bus_bus" departSpeed="max"/>
    <trip id="bus1" depart="83.74" from="109984882" to="130046557#0" departLane="best" type="bus_bus" departSpeed="max"/>
    <trip id="bus2" depart="167.48" from="-130043752#1" to="109972547#0" departLane="best" type="bus_bus" departSpeed="max"/>
    <trip id="bus3" depart="251.22" from="-183543979#1" to="863419975" departLane="best" type="bus_bus"/>
    <trip id="bus4" depart="334.95" from="-5031527" to="130043752#0" departLane="best" type="bus_bus" departSpeed="max"/>
    <trip id="bus5" depart="418.69" from="-5031527" to="-282194769#5" departLane="best" type="bus_bus" departSpeed="max"/>
    <trip id="bus6" depart="502.43" from="282194769#0" to="820090516#0" departLane="best" type="bus_bus" departSpeed="max"/>
    <trip id="bus7" depart="586.17" from="-183543979#1" to="-282194769#5" departLane="best" type="bus_bus"/>
    <trip id="bus8" depart="669.91" from="-183543979#1" to="-282194769#5" departLane="best" type="bus_bus"/>
    <trip id="bus9" depart="753.65" from="282194769#0" to="109971505" departLane="best" type="bus_bus" departSpeed="max"/>
    <trip id="bus10" depart="837.38" from="282194769#0" to="109972547#0" departLane="best" type="bus_bus" departSpeed="max"/>
    <trip id="bus11" depart="921.12" from="109971518#0" to="863419975" departLane="best" type="bus_bus"/>
    <trip id="bus12" depart="1004.86" from="109984882" to="-282194769#5" departLane="best" type="bus_bus" departSpeed="max"/>
    <trip id="bus13" depart="1088.60" from="109984882" to="130046557#0" departLane="best" type="bus_bus" departSpeed="max"/>
    <trip id="bus14" depart="1172.34" from="282194769#0" to="109971505" departLane="best" type="bus_bus" departSpeed="max"/>
    <trip id="bus15" depart="1256.08" from="-5031527" to="130043752#0" departLane="best" type="bus_bus" departSpeed="max"/>
    <trip id="bus16" depart="1339.82" from="130046557#0" to="-282194769#5" departLane="best" type="bus_bus"/>
    <trip id="bus17" depart="1423.55" from="109984882" to="109971505" departLane="best" type="bus_bus" departSpeed="max"/>
    <trip id="bus18" depart="1507.29" from="-183532951#2" to="130043752#0" departLane="best" type="bus_bus" departSpeed="max"/>
    <trip id="bus19" depart="1591.03" from="-130043752#1" to="109972547#0" departLane="best" type="bus_bus" departSpeed="max"/>
    <trip id="bus20" depart="1674.77" from="109984882" to="-282194769#5" departLane="best" type="bus_bus" departSpeed="max"/>
    <trip id="bus21" depart="1758.51" from="-130043752#1" to="-282194769#5" departLane="best" type="bus_bus" departSpeed="max"/>
    <trip id="bus22" depart="1842.25" from="-130043752#1" to="109972547#0" departLane="best" type="bus_bus" departSpeed="max"/>
    <trip id="bus23" depart="1925.98" from="-5031527" to="-282194769#5" departLane="best" type="bus_bus" departSpeed="max"/>
    <trip id="bus24" depart="2009.72" from="820090516#0" to="-282194769#5" departLane="best" type="bus_bus"/>
    <trip id="bus25" depart="2093.46" from="282194769#0" to="863419975" departLane="best" type="bus_bus" departSpeed="max"/>
    <trip id="bus26" depart="2177.20" from="-183532951#2" to="130043752#0" departLane="best" type="bus_bus" departSpeed="max"/>
    <trip id="bus27" depart="2260.94" from="-5031527" to="863419975" departLane="best" type="bus_bus" departSpeed="max"/>
    <trip id="bus28" depart="2344.68" from="282194769#0" to="109971518#0" departLane="best" type="bus_bus" departSpeed="max"/>
    <trip id="bus29" depart="2428.42" from="109984882" to="-282194769#5" departLane="best" type="bus_bus" departSpeed="max"/>
    <trip id="bus30" depart="2512.15" from="-183532951#2" to="863419975" departLane="best" type="bus_bus" departSpeed="max"/>
    <trip id="bus31" depart="2595.89" from="-5031527" to="130043752#0" departLane="best" type="bus_bus" departSpeed="max"/>
    <trip id="bus32" depart="2679.63" from="-183532951#2" to="-282194769#5" departLane="best" type="bus_bus" departSpeed="max"/>
    <trip id="bus33" depart="2763.37" from="282194769#0" to="130043752#0" departLane="best" type="bus_bus" departSpeed="max"/>
    <trip id="bus34" depart="2847.11" from="282194769#0" to="130043752#0" departLane="best" type="bus_bus" departSpeed="max"/>
    <trip id="bus35" depart="2930.85" from="282194769#0" to="109971505" departLane="best" type="bus_bus" departSpeed="max"/>
    <trip id="bus36" depart="3014.58" from="-5031527" to="863419975" departLane="best" type="bus_bus" departSpeed="max"/>
    <trip id="bus37" depart="3098.32" from="-183532951#2" to="109972547#0" departLane="best" type="bus_bus" departSpeed="max"/>
    <trip id="bus38" depart="3182.06" from="-5031527" to="130043752#0" departLane="best" type="bus_bus" departSpeed="max"/>
    <trip id="bus39" depart="3265.80" from="-5031527" to="863419975" departLane="best" type="bus_bus" departSpeed="max"/>
    <trip id="bus40" depart="3349.54" from="282194769#0" to="863419975" departLane="best" type="bus_bus" departSpeed="max"/>
    <trip id="bus41" depart="3433.28" from="109984882" to="-282194769#5" departLane="best" type="bus_bus" departSpeed="max"/>
    <trip id="bus42" depart="3517.02" from="109984882" to="-282194769#5" departLane="best" type="bus_bus" departSpeed="max"/>
</routes>
