<?xml version="1.0" encoding="UTF-8"?>

<!-- generated on 2025-09-03 01:04:10 by Eclipse SUMO duarouter Version 1.24.0
<duarouterConfiguration xmlns:xsi="http://www.w3.org/2001/XMLSchema-instance" xsi:noNamespaceSchemaLocation="http://sumo.dlr.de/xsd/duarouterConfiguration.xsd">

    <input>
        <net-file value="C:\Users\kgaqu\OneDrive\Documents\4th Year\Capstone 2\v10\backend\networks\jollibee_molino\jollibee_molino.net.xml"/>
        <route-files value="C:\Users\kgaqu\OneDrive\Documents\4th Year\Capstone 2\v10\backend\networks\jollibee_molino\routes\osm.passenger.trips.xml"/>
    </input>

    <output>
        <output-file value="C:\Users\kgaqu\OneDrive\Documents\4th Year\Capstone 2\v10\backend\networks\jollibee_molino\routes\osm.passenger.rou.xml"/>
    </output>

    <report>
        <ignore-errors value="true"/>
    </report>

</duarouterConfiguration>
-->

<routes xmlns:xsi="http://www.w3.org/2001/XMLSchema-instance" xsi:noNamespaceSchemaLocation="http://sumo.dlr.de/xsd/routes_file.xsd">
    <vType id="veh_passenger" vClass="passenger"/>
    <vehicle id="veh0" type="veh_passenger" depart="0.00" departLane="best">
        <route edges="-183543979#1 109972547#0"/>
    </vehicle>
    <vehicle id="veh1" type="veh_passenger" depart="27.91" departLane="best" departSpeed="max">
        <route edges="-130043752#1 130046557#0 109971505"/>
    </vehicle>
    <vehicle id="veh2" type="veh_passenger" depart="55.83" departLane="best" departSpeed="max">
        <route edges="-130043752#1 130046557#0 -183543979#1"/>
    </vehicle>
    <vehicle id="veh3" type="veh_passenger" depart="83.74" departLane="best">
        <route edges="-183543979#1 -282194769#5"/>
    </vehicle>
    <vehicle id="veh4" type="veh_passenger" depart="111.65" departLane="best" departSpeed="max">
        <route edges="-5031527 820090516#0 109971518#0 863419975"/>
    </vehicle>
    <vehicle id="veh5" type="veh_passenger" depart="139.56" departLane="best" departSpeed="max">
        <route edges="-183532951#2 109971518#0 863419975"/>
    </vehicle>
    <vehicle id="veh6" type="veh_passenger" depart="167.48" departLane="best">
        <route edges="130046557#0 -183543979#1 -282194769#5"/>
    </vehicle>
    <vehicle id="veh7" type="veh_passenger" depart="195.39" departLane="best" departSpeed="max">
        <route edges="282194769#0 820090516#0"/>
    </vehicle>
    <vehicle id="veh8" type="veh_passenger" depart="223.30" departLane="best" departSpeed="max">
        <route edges="282194769#0 820090516#0 109971518#0 863419975"/>
    </vehicle>
    <vehicle id="veh9" type="veh_passenger" depart="251.22" departLane="best" departSpeed="max">
        <route edges="-183532951#2 -183543979#1 -282194769#5"/>
    </vehicle>
    <vehicle id="veh10" type="veh_passenger" depart="279.13" departLane="best">
        <route edges="130046557#0 109971505"/>
    </vehicle>
    <vehicle id="veh11" type="veh_passenger" depart="307.04" departLane="best" departSpeed="max">
        <route edges="-5031527 820090516#0 109971518#0 863419975"/>
    </vehicle>
    <vehicle id="veh12" type="veh_passenger" depart="334.95" departLane="best">
        <route edges="130046557#0"/>
    </vehicle>
    <vehicle id="veh13" type="veh_passenger" depart="362.87" departLane="best" departSpeed="max">
        <route edges="282194769#0 820090516#0"/>
    </vehicle>
    <vehicle id="veh14" type="veh_passenger" depart="390.78" departLane="best" departSpeed="max">
        <route edges="282194769#0 820090516#0 109971518#0 130046557#0"/>
    </vehicle>
    <vehicle id="veh15" type="veh_passenger" depart="418.69" departLane="best" departSpeed="max">
        <route edges="109984882 130046557#0 -183543979#1 -282194769#5"/>
    </vehicle>
    <vehicle id="veh16" type="veh_passenger" depart="446.61" departLane="best" departSpeed="max">
        <route edges="282194769#0 820090516#0 109971518#0 863419975"/>
    </vehicle>
    <vehicle id="veh17" type="veh_passenger" depart="474.52" departLane="best" departSpeed="max">
        <route edges="-5031527 820090516#0 109971518#0 130046557#0"/>
    </vehicle>
    <vehicle id="veh18" type="veh_passenger" depart="502.43" departLane="best" departSpeed="max">
        <route edges="-130043752#1 130046557#0 -183543979#1 109972547#0"/>
    </vehicle>
    <vehicle id="veh19" type="veh_passenger" depart="530.34" departLane="best" departSpeed="max">
        <route edges="109984882 130046557#0 109971505"/>
    </vehicle>
    <vehicle id="veh20" type="veh_passenger" depart="558.26" departLane="best">
        <route edges="109971518#0 863419975"/>
    </vehicle>
    <vehicle id="veh21" type="veh_passenger" depart="586.17" departLane="best" departSpeed="max">
        <route edges="-183532951#2 -183543979#1 109972547#0"/>
    </vehicle>
    <vehicle id="veh22" type="veh_passenger" depart="614.08" departLane="best" departSpeed="max">
        <route edges="-130043752#1 130046557#0 109971505"/>
    </vehicle>
    <vehicle id="veh23" type="veh_passenger" depart="641.99" departLane="best" departSpeed="max">
        <route edges="282194769#0 820090516#0 109971518#0 130043752#0"/>
    </vehicle>
    <vehicle id="veh24" type="veh_passenger" depart="669.91" departLane="best" departSpeed="max">
        <route edges="109984882 130046557#0 -183543979#1 109972547#0"/>
    </vehicle>
    <vehicle id="veh25" type="veh_passenger" depart="697.82" departLane="best" departSpeed="max">
        <route edges="-183532951#2 109971518#0 130043752#0"/>
    </vehicle>
    <vehicle id="veh26" type="veh_passenger" depart="725.73" departLane="best" departSpeed="max">
        <route edges="-183532951#2 109971518#0 130043752#0"/>
    </vehicle>
    <vehicle id="veh27" type="veh_passenger" depart="753.65" departLane="best" departSpeed="max">
        <route edges="109984882 130046557#0 109971505"/>
    </vehicle>
    <vehicle id="veh28" type="veh_passenger" depart="781.56" departLane="best">
        <route edges="-183543979#1 820090516#0 109971518#0"/>
    </vehicle>
    <vehicle id="veh29" type="veh_passenger" depart="809.47" departLane="best" departSpeed="max">
        <route edges="-5031527 820090516#0 109971518#0 863419975"/>
    </vehicle>
    <vehicle id="veh30" type="veh_passenger" depart="837.38" departLane="best" departSpeed="max">
        <route edges="109984882 130046557#0 -183543979#1 109972547#0"/>
    </vehicle>
    <vehicle id="veh31" type="veh_passenger" depart="865.30" departLane="best" departSpeed="max">
        <route edges="109984882 130046557#0 -183543979#1 109972547#0"/>
    </vehicle>
    <vehicle id="veh32" type="veh_passenger" depart="893.21" departLane="best" departSpeed="max">
        <route edges="-183532951#2 -183543979#1"/>
    </vehicle>
    <vehicle id="veh33" type="veh_passenger" depart="921.12" departLane="best">
        <route edges="820090516#0 109971518#0 863419975"/>
    </vehicle>
    <vehicle id="veh34" type="veh_passenger" depart="949.04" departLane="best" departSpeed="max">
        <route edges="-183532951#2 109971518#0 130043752#0"/>
    </vehicle>
    <vehicle id="veh35" type="veh_passenger" depart="976.95" departLane="best" departSpeed="max">
        <route edges="282194769#0 820090516#0 109971518#0 863419975"/>
    </vehicle>
    <vehicle id="veh36" type="veh_passenger" depart="1004.86" departLane="best" departSpeed="max">
        <route edges="-130043752#1 130046557#0 -183543979#1 -282194769#5"/>
    </vehicle>
    <vehicle id="veh37" type="veh_passenger" depart="1032.77" departLane="best" departSpeed="max">
        <route edges="-5031527 820090516#0 109971518#0 130043752#0"/>
    </vehicle>
    <vehicle id="veh38" type="veh_passenger" depart="1060.69" departLane="best" departSpeed="max">
        <route edges="-130043752#1 130046557#0 -183543979#1 820090516#0"/>
    </vehicle>
    <vehicle id="veh39" type="veh_passenger" depart="1088.60" departLane="best">
        <route edges="130046557#0 -183543979#1 109972547#0"/>
    </vehicle>
    <vehicle id="veh40" type="veh_passenger" depart="1116.51" departLane="best" departSpeed="max">
        <route edges="282194769#0 820090516#0 109971505"/>
    </vehicle>
    <vehicle id="veh41" type="veh_passenger" depart="1144.43" departLane="best" departSpeed="max">
        <route edges="282194769#0 820090516#0 109971505"/>
    </vehicle>
    <vehicle id="veh42" type="veh_passenger" depart="1172.34" departLane="best" departSpeed="max">
        <route edges="282194769#0 820090516#0"/>
    </vehicle>
    <vehicle id="veh43" type="veh_passenger" depart="1200.25" departLane="best" departSpeed="max">
        <route edges="282194769#0 820090516#0 109971505"/>
    </vehicle>
    <vehicle id="veh44" type="veh_passenger" depart="1228.16" departLane="best">
        <route edges="820090516#0 109971505"/>
    </vehicle>
    <vehicle id="veh45" type="veh_passenger" depart="1256.08" departLane="best" departSpeed="max">
        <route edges="109984882 130046557#0 -183543979#1 820090516#0"/>
    </vehicle>
    <vehicle id="veh46" type="veh_passenger" depart="1283.99" departLane="best" departSpeed="max">
        <route edges="282194769#0 820090516#0 109971518#0 130046557#0"/>
    </vehicle>
    <vehicle id="veh47" type="veh_passenger" depart="1311.90" departLane="best" departSpeed="max">
        <route edges="282194769#0 820090516#0 109971518#0 130046557#0"/>
    </vehicle>
    <vehicle id="veh48" type="veh_passenger" depart="1339.82" departLane="best" departSpeed="max">
        <route edges="109984882 130046557#0 -183543979#1 -282194769#5"/>
    </vehicle>
    <vehicle id="veh49" type="veh_passenger" depart="1367.73" departLane="best" departSpeed="max">
        <route edges="282194769#0 820090516#0 109971505"/>
    </vehicle>
    <vehicle id="veh50" type="veh_passenger" depart="1395.64" departLane="best" departSpeed="max">
        <route edges="-183532951#2 -183543979#1 -282194769#5"/>
    </vehicle>
    <vehicle id="veh51" type="veh_passenger" depart="1423.55" departLane="best" departSpeed="max">
        <route edges="109984882 130046557#0 109971505"/>
    </vehicle>
    <vehicle id="veh52" type="veh_passenger" depart="1451.47" departLane="best" departSpeed="max">
        <route edges="282194769#0 820090516#0 109971518#0 863419975"/>
    </vehicle>
    <vehicle id="veh53" type="veh_passenger" depart="1479.38" departLane="best" departSpeed="max">
        <route edges="282194769#0 820090516#0 109971505"/>
    </vehicle>
    <vehicle id="veh54" type="veh_passenger" depart="1507.29" departLane="best">
        <route edges="820090516#0 -183543979#1 109972547#0"/>
    </vehicle>
    <vehicle id="veh55" type="veh_passenger" depart="1535.21" departLane="best" departSpeed="max">
        <route edges="282194769#0 820090516#0 109971518#0 130043752#0"/>
    </vehicle>
    <vehicle id="veh56" type="veh_passenger" depart="1563.12" departLane="best" departSpeed="max">
        <route edges="-5031527 820090516#0 109971518#0 863419975"/>
    </vehicle>
    <vehicle id="veh57" type="veh_passenger" depart="1591.03" departLane="best" departSpeed="max">
        <route edges="-130043752#1 130046557#0 109971505"/>
    </vehicle>
    <vehicle id="veh58" type="veh_passenger" depart="1618.94" departLane="best" departSpeed="max">
        <route edges="109984882 130046557#0 -183543979#1 -282194769#5"/>
    </vehicle>
    <vehicle id="veh59" type="veh_passenger" depart="1646.86" departLane="best" departSpeed="max">
        <route edges="109984882 130046557#0 109971505"/>
    </vehicle>
    <vehicle id="veh60" type="veh_passenger" depart="1674.77" departLane="best" departSpeed="max">
        <route edges="-183532951#2 109971518#0"/>
    </vehicle>
    <vehicle id="veh61" type="veh_passenger" depart="1702.68" departLane="best">
        <route edges="130046557#0"/>
    </vehicle>
    <vehicle id="veh62" type="veh_passenger" depart="1730.59" departLane="best">
        <route edges="109971518#0 130043752#0"/>
    </vehicle>
    <vehicle id="veh63" type="veh_passenger" depart="1758.51" departLane="best" departSpeed="max">
        <route edges="109984882 130046557#0"/>
    </vehicle>
    <vehicle id="veh64" type="veh_passenger" depart="1786.42" departLane="best" departSpeed="max">
        <route edges="282194769#0 820090516#0 109971518#0 863419975"/>
    </vehicle>
    <vehicle id="veh65" type="veh_passenger" depart="1814.33" departLane="best" departSpeed="max">
        <route edges="109984882 130046557#0 109971505"/>
    </vehicle>
    <vehicle id="veh66" type="veh_passenger" depart="1842.25" departLane="best" departSpeed="max">
        <route edges="282194769#0 820090516#0 109971518#0 130046557#0"/>
    </vehicle>
    <vehicle id="veh67" type="veh_passenger" depart="1870.16" departLane="best" departSpeed="max">
        <route edges="109984882 130046557#0 -183543979#1 -282194769#5"/>
    </vehicle>
    <vehicle id="veh68" type="veh_passenger" depart="1898.07" departLane="best" departSpeed="max">
        <route edges="109984882 130046557#0 109971505"/>
    </vehicle>
    <vehicle id="veh69" type="veh_passenger" depart="1925.98" departLane="best" departSpeed="max">
        <route edges="-5031527 820090516#0 -183543979#1"/>
    </vehicle>
    <vehicle id="veh70" type="veh_passenger" depart="1953.90" departLane="best" departSpeed="max">
        <route edges="-183532951#2 109971518#0 130043752#0"/>
    </vehicle>
    <vehicle id="veh71" type="veh_passenger" depart="1981.81" departLane="best" departSpeed="max">
        <route edges="109984882 130046557#0 109971505"/>
    </vehicle>
    <vehicle id="veh72" type="veh_passenger" depart="2009.72" departLane="best" departSpeed="max">
        <route edges="282194769#0 820090516#0 109971518#0 863419975"/>
    </vehicle>
    <vehicle id="veh73" type="veh_passenger" depart="2037.64" departLane="best" departSpeed="max">
        <route edges="109984882 130046557#0 109971505"/>
    </vehicle>
    <vehicle id="veh74" type="veh_passenger" depart="2065.55" departLane="best" departSpeed="max">
        <route edges="-183532951#2 109971518#0 863419975"/>
    </vehicle>
    <vehicle id="veh75" type="veh_passenger" depart="2093.46" departLane="best" departSpeed="max">
        <route edges="109984882 130046557#0 -183543979#1 109972547#0"/>
    </vehicle>
    <vehicle id="veh76" type="veh_passenger" depart="2121.37" departLane="best" departSpeed="max">
        <route edges="109984882 130046557#0 -183543979#1 -282194769#5"/>
    </vehicle>
    <vehicle id="veh77" type="veh_passenger" depart="2149.29" departLane="best" departSpeed="max">
        <route edges="282194769#0 109972547#0"/>
    </vehicle>
    <vehicle id="veh78" type="veh_passenger" depart="2177.20" departLane="best">
        <route edges="109971518#0 130046557#0 -183543979#1 -282194769#5"/>
    </vehicle>
    <vehicle id="veh79" type="veh_passenger" depart="2205.11" departLane="best" departSpeed="max">
        <route edges="-183532951#2 109971518#0 863419975"/>
    </vehicle>
    <vehicle id="veh80" type="veh_passenger" depart="2233.03" departLane="best" departSpeed="max">
        <route edges="109984882 130046557#0"/>
    </vehicle>
    <vehicle id="veh81" type="veh_passenger" depart="2260.94" departLane="best" departSpeed="max">
        <route edges="109984882 130046557#0 109971518#0"/>
    </vehicle>
    <vehicle id="veh82" type="veh_passenger" depart="2288.85" departLane="best">
        <route edges="109971518#0 863419975"/>
    </vehicle>
    <vehicle id="veh83" type="veh_passenger" depart="2316.76" departLane="best" departSpeed="max">
        <route edges="109984882 130046557#0 -183543979#1"/>
    </vehicle>
    <vehicle id="veh84" type="veh_passenger" depart="2344.68" departLane="best" departSpeed="max">
        <route edges="109984882 130046557#0 -183543979#1 820090516#0"/>
    </vehicle>
    <vehicle id="veh85" type="veh_passenger" depart="2372.59" departLane="best" departSpeed="max">
        <route edges="-5031527 820090516#0 109971505"/>
    </vehicle>
    <vehicle id="veh86" type="veh_passenger" depart="2400.50" departLane="best" departSpeed="max">
        <route edges="-5031527 820090516#0 109971505"/>
    </vehicle>
    <vehicle id="veh87" type="veh_passenger" depart="2428.42" departLane="best">
        <route edges="820090516#0 109971518#0 863419975"/>
    </vehicle>
    <vehicle id="veh88" type="veh_passenger" depart="2456.33" departLane="best" departSpeed="max">
        <route edges="109984882 130046557#0 -183543979#1 -282194769#5"/>
    </vehicle>
    <vehicle id="veh89" type="veh_passenger" depart="2484.24" departLane="best" departSpeed="max">
        <route edges="282194769#0 820090516#0 109971518#0 863419975"/>
    </vehicle>
    <vehicle id="veh90" type="veh_passenger" depart="2512.15" departLane="best" departSpeed="max">
        <route edges="-5031527 820090516#0 109971518#0 130043752#0"/>
    </vehicle>
    <vehicle id="veh91" type="veh_passenger" depart="2540.07" departLane="best">
        <route edges="109971518#0 130046557#0 -183543979#1 -282194769#5"/>
    </vehicle>
    <vehicle id="veh92" type="veh_passenger" depart="2567.98" departLane="best" departSpeed="max">
        <route edges="-183532951#2 -183543979#1 -282194769#5"/>
    </vehicle>
    <vehicle id="veh93" type="veh_passenger" depart="2595.89" departLane="best" departSpeed="max">
        <route edges="109984882 130046557#0 109971505"/>
    </vehicle>
    <vehicle id="veh94" type="veh_passenger" depart="2623.80" departLane="best">
        <route edges="820090516#0 109971518#0 863419975"/>
    </vehicle>
    <vehicle id="veh95" type="veh_passenger" depart="2651.72" departLane="best">
        <route edges="-183543979#1 -282194769#5"/>
    </vehicle>
    <vehicle id="veh96" type="veh_passenger" depart="2679.63" departLane="best" departSpeed="max">
        <route edges="282194769#0 820090516#0 109971518#0 863419975"/>
    </vehicle>
    <vehicle id="veh97" type="veh_passenger" depart="2707.54" departLane="best" departSpeed="max">
        <route edges="-5031527 820090516#0 109971518#0 863419975"/>
    </vehicle>
    <vehicle id="veh98" type="veh_passenger" depart="2735.46" departLane="best" departSpeed="max">
        <route edges="282194769#0 820090516#0 109971518#0"/>
    </vehicle>
    <vehicle id="veh99" type="veh_passenger" depart="2763.37" departLane="best">
        <route edges="109971518#0 130043752#0"/>
    </vehicle>
    <vehicle id="veh100" type="veh_passenger" depart="2791.28" departLane="best" departSpeed="max">
        <route edges="282194769#0 820090516#0"/>
    </vehicle>
    <vehicle id="veh101" type="veh_passenger" depart="2819.19" departLane="best">
        <route edges="820090516#0 -183543979#1 -282194769#5"/>
    </vehicle>
    <vehicle id="veh102" type="veh_passenger" depart="2847.11" departLane="best" departSpeed="max">
        <route edges="-183532951#2 -183543979#1 -282194769#5"/>
    </vehicle>
    <vehicle id="veh103" type="veh_passenger" depart="2875.02" departLane="best" departSpeed="max">
        <route edges="282194769#0 820090516#0 109971505"/>
    </vehicle>
    <vehicle id="veh104" type="veh_passenger" depart="2902.93" departLane="best" departSpeed="max">
        <route edges="-130043752#1 130046557#0 -183543979#1 -282194769#5"/>
    </vehicle>
    <vehicle id="veh105" type="veh_passenger" depart="2930.85" departLane="best" departSpeed="max">
        <route edges="-130043752#1 130046557#0 -183543979#1 109972547#0"/>
    </vehicle>
    <vehicle id="veh106" type="veh_passenger" depart="2958.76" departLane="best" departSpeed="max">
        <route edges="109984882 130046557#0 109971505"/>
    </vehicle>
    <vehicle id="veh107" type="veh_passenger" depart="2986.67" departLane="best" departSpeed="max">
        <route edges="-130043752#1 130046557#0 -183543979#1 -282194769#5"/>
    </vehicle>
    <vehicle id="veh108" type="veh_passenger" depart="3014.58" departLane="best" departSpeed="max">
        <route edges="109984882 130046557#0 -183543979#1"/>
    </vehicle>
    <vehicle id="veh109" type="veh_passenger" depart="3042.50" departLane="best" departSpeed="max">
        <route edges="-183532951#2 -183543979#1 109972547#0"/>
    </vehicle>
    <vehicle id="veh110" type="veh_passenger" depart="3070.41" departLane="best">
        <route edges="109971518#0 863419975"/>
    </vehicle>
    <vehicle id="veh111" type="veh_passenger" depart="3098.32" departLane="best" departSpeed="max">
        <route edges="282194769#0 109972547#0"/>
    </vehicle>
    <vehicle id="veh112" type="veh_passenger" depart="3126.24" departLane="best" departSpeed="max">
        <route edges="109984882 130046557#0 109971505"/>
    </vehicle>
    <vehicle id="veh113" type="veh_passenger" depart="3154.15" departLane="best" departSpeed="max">
        <route edges="109984882 130046557#0 -183543979#1 -282194769#5"/>
    </vehicle>
    <vehicle id="veh114" type="veh_passenger" depart="3182.06" departLane="best" departSpeed="max">
        <route edges="-183532951#2 109971518#0 863419975"/>
    </vehicle>
    <vehicle id="veh115" type="veh_passenger" depart="3209.97" departLane="best" departSpeed="max">
        <route edges="109984882 130046557#0 -183543979#1 109972547#0"/>
    </vehicle>
    <vehicle id="veh116" type="veh_passenger" depart="3237.89" departLane="best" departSpeed="max">
        <route edges="282194769#0 820090516#0 109971518#0 130046557#0"/>
    </vehicle>
    <vehicle id="veh117" type="veh_passenger" depart="3265.80" departLane="best" departSpeed="max">
        <route edges="-183532951#2 -183543979#1 109972547#0"/>
    </vehicle>
    <vehicle id="veh118" type="veh_passenger" depart="3293.71" departLane="best" departSpeed="max">
        <route edges="282194769#0 820090516#0 109971505"/>
    </vehicle>
    <vehicle id="veh119" type="veh_passenger" depart="3321.63" departLane="best">
        <route edges="820090516#0 -183543979#1 -282194769#5"/>
    </vehicle>
    <vehicle id="veh120" type="veh_passenger" depart="3349.54" departLane="best">
        <route edges="109971518#0 130046557#0 -183543979#1 -282194769#5"/>
    </vehicle>
    <vehicle id="veh121" type="veh_passenger" depart="3377.45" departLane="best" departSpeed="max">
        <route edges="109984882 130046557#0 109971505"/>
    </vehicle>
    <vehicle id="veh122" type="veh_passenger" depart="3405.36" departLane="best">
        <route edges="-183543979#1 -282194769#5"/>
    </vehicle>
    <vehicle id="veh123" type="veh_passenger" depart="3433.28" departLane="best" departSpeed="max">
        <route edges="-183532951#2 109971518#0 863419975"/>
    </vehicle>
    <vehicle id="veh124" type="veh_passenger" depart="3461.19" departLane="best" departSpeed="max">
        <route edges="-5031527 820090516#0 109971518#0 130046557#0"/>
    </vehicle>
    <vehicle id="veh125" type="veh_passenger" depart="3489.10" departLane="best" departSpeed="max">
        <route edges="109984882 130046557#0 109971505"/>
    </vehicle>
    <vehicle id="veh126" type="veh_passenger" depart="3517.02" departLane="best">
        <route edges="109971518#0 130046557#0 -183543979#1 -282194769#5"/>
    </vehicle>
    <vehicle id="veh127" type="veh_passenger" depart="3544.93" departLane="best" departSpeed="max">
        <route edges="-183532951#2 109971518#0 863419975"/>
    </vehicle>
    <vehicle id="veh128" type="veh_passenger" depart="3572.84" departLane="best" departSpeed="max">
        <route edges="-5031527 820090516#0"/>
    </vehicle>
</routes>
