<?xml version="1.0" encoding="UTF-8"?>

<!-- generated on 2025-09-17 21:44:06.316333 by randomTrips.py v1_24_0+0000-b72eb3fabc8
<configuration>
    <net-file value="osm.net.xml.gz"/>
    <output-trip-file value="osm.truck.trips.xml"/>
    <route-file value="osm.truck.rou.xml"/>
    <prefix value="truck"/>
    <trip-attributes value="departLane=&quot;best&quot;"/>
    <fringe-start-attributes value="departSpeed=&quot;max&quot;"/>
    <vehicle-class value="truck"/>
    <fringe-factor value="5"/>
    <edge-permission value="truck"/>
    <via-edge-types value="highway.motorway,highway.motorway_link,highway.trunk_link,highway.primary_link,highway.secondary_link,highway.tertiary_link"/>
    <seed value="45"/>
    <min-distance value="600.0"/>
    <min-distance.fringe value="10.0"/>
    <remove-loops value="True"/>
    <insertion-density value="8.0"/>
</configuration>
-->

<routes xmlns:xsi="http://www.w3.org/2001/XMLSchema-instance" xsi:noNamespaceSchemaLocation="http://sumo.dlr.de/xsd/routes_file.xsd">
    <vType id="truck_truck" vClass="truck"/>
    <trip id="truck0" depart="0.00" from="-130048902#1" to="-665787530" departLane="best" type="truck_truck" departSpeed="max"/>
    <trip id="truck1" depart="102.60" from="-130048902#1" to="-665787530" departLane="best" type="truck_truck" departSpeed="max"/>
    <trip id="truck2" depart="205.20" from="183710979#0" to="665787533" departLane="best" type="truck_truck" departSpeed="max"/>
    <trip id="truck3" depart="307.80" from="-130048902#1" to="-665787530" departLane="best" type="truck_truck" departSpeed="max"/>
    <trip id="truck4" depart="410.40" from="-130048902#1" to="-665787530" departLane="best" type="truck_truck" departSpeed="max"/>
    <trip id="truck5" depart="513.00" from="183710979#0" to="665787533" departLane="best" type="truck_truck" departSpeed="max"/>
    <trip id="truck6" depart="615.60" from="183710979#0" to="665787533" departLane="best" type="truck_truck" departSpeed="max"/>
    <trip id="truck7" depart="718.20" from="183710979#0" to="665787533" departLane="best" type="truck_truck" departSpeed="max"/>
    <trip id="truck8" depart="820.80" from="183710979#0" to="665787533" departLane="best" type="truck_truck" departSpeed="max"/>
    <trip id="truck9" depart="923.40" from="183710979#0" to="665787533" departLane="best" type="truck_truck" departSpeed="max"/>
    <trip id="truck10" depart="1026.00" from="183710979#0" to="665787533" departLane="best" type="truck_truck" departSpeed="max"/>
    <trip id="truck11" depart="1128.60" from="-130048902#1" to="-665787530" departLane="best" type="truck_truck" departSpeed="max"/>
    <trip id="truck12" depart="1231.20" from="183710979#0" to="665787533" departLane="best" type="truck_truck" departSpeed="max"/>
    <trip id="truck13" depart="1333.80" from="183710979#0" to="665787533" departLane="best" type="truck_truck" departSpeed="max"/>
    <trip id="truck14" depart="1436.40" from="-130048902#1" to="-665787530" departLane="best" type="truck_truck" departSpeed="max"/>
    <trip id="truck15" depart="1539.01" from="183710979#0" to="665787533" departLane="best" type="truck_truck" departSpeed="max"/>
    <trip id="truck16" depart="1641.61" from="183710979#0" to="665787533" departLane="best" type="truck_truck" departSpeed="max"/>
    <trip id="truck17" depart="1744.21" from="-130048902#1" to="-665787530" departLane="best" type="truck_truck" departSpeed="max"/>
    <trip id="truck18" depart="1846.81" from="-130048902#1" to="-665787530" departLane="best" type="truck_truck" departSpeed="max"/>
    <trip id="truck19" depart="1949.41" from="-130048902#1" to="-665787530" departLane="best" type="truck_truck" departSpeed="max"/>
    <trip id="truck20" depart="2052.01" from="-130048902#1" to="-665787530" departLane="best" type="truck_truck" departSpeed="max"/>
    <trip id="truck21" depart="2154.61" from="183710979#0" to="665787533" departLane="best" type="truck_truck" departSpeed="max"/>
    <trip id="truck22" depart="2257.21" from="183710979#0" to="665787533" departLane="best" type="truck_truck" departSpeed="max"/>
    <trip id="truck23" depart="2359.81" from="183710979#0" to="665787533" departLane="best" type="truck_truck" departSpeed="max"/>
    <trip id="truck24" depart="2462.41" from="-130048902#1" to="-665787530" departLane="best" type="truck_truck" departSpeed="max"/>
    <trip id="truck25" depart="2565.01" from="183710979#0" to="665787533" departLane="best" type="truck_truck" departSpeed="max"/>
    <trip id="truck26" depart="2667.61" from="-130048902#1" to="-665787530" departLane="best" type="truck_truck" departSpeed="max"/>
    <trip id="truck27" depart="2770.21" from="-130048902#1" to="-665787530" departLane="best" type="truck_truck" departSpeed="max"/>
    <trip id="truck28" depart="2872.81" from="-130048902#1" to="-665787530" departLane="best" type="truck_truck" departSpeed="max"/>
    <trip id="truck29" depart="2975.41" from="-130048902#1" to="-665787530" departLane="best" type="truck_truck" departSpeed="max"/>
    <trip id="truck30" depart="3078.01" from="-130048902#1" to="-665787530" departLane="best" type="truck_truck" departSpeed="max"/>
    <trip id="truck31" depart="3180.61" from="-130048902#1" to="-665787530" departLane="best" type="truck_truck" departSpeed="max"/>
    <trip id="truck32" depart="3283.21" from="-130048902#1" to="-665787530" departLane="best" type="truck_truck" departSpeed="max"/>
    <trip id="truck33" depart="3385.81" from="-130048902#1" to="-665787530" departLane="best" type="truck_truck" departSpeed="max"/>
    <trip id="truck34" depart="3488.41" from="183710979#0" to="665787533" departLane="best" type="truck_truck" departSpeed="max"/>
    <trip id="truck35" depart="3591.01" from="183710979#0" to="665787533" departLane="best" type="truck_truck" departSpeed="max"/>
</routes>
