<?xml version="1.0" encoding="UTF-8"?>

<!-- generated on 2025-09-17 21:44:04.120763 by randomTrips.py v1_24_0+0000-b72eb3fabc8
<configuration>
    <net-file value="osm.net.xml.gz"/>
    <output-trip-file value="osm.bus.trips.xml"/>
    <route-file value="osm.bus.rou.xml"/>
    <prefix value="bus"/>
    <trip-attributes value="departLane=&quot;best&quot;"/>
    <fringe-start-attributes value="departSpeed=&quot;max&quot;"/>
    <vehicle-class value="bus"/>
    <fringe-factor value="5"/>
    <edge-permission value="bus"/>
    <via-edge-types value="highway.motorway,highway.motorway_link,highway.trunk_link,highway.primary_link,highway.secondary_link,highway.tertiary_link"/>
    <min-distance value="600.0"/>
    <min-distance.fringe value="10.0"/>
    <remove-loops value="True"/>
    <insertion-density value="4.0"/>
</configuration>
-->

<routes xmlns:xsi="http://www.w3.org/2001/XMLSchema-instance" xsi:noNamespaceSchemaLocation="http://sumo.dlr.de/xsd/routes_file.xsd">
    <vType id="bus_bus" vClass="bus"/>
    <trip id="bus0" depart="0.00" from="183710979#0" to="665787533" departLane="best" type="bus_bus" departSpeed="max"/>
    <trip id="bus1" depart="205.20" from="-130048902#1" to="-665787530" departLane="best" type="bus_bus" departSpeed="max"/>
    <trip id="bus2" depart="410.40" from="183710979#0" to="665787533" departLane="best" type="bus_bus" departSpeed="max"/>
    <trip id="bus3" depart="615.60" from="183710979#0" to="665787533" departLane="best" type="bus_bus" departSpeed="max"/>
    <trip id="bus4" depart="820.80" from="-130048902#1" to="-665787530" departLane="best" type="bus_bus" departSpeed="max"/>
    <trip id="bus5" depart="1026.00" from="-130048902#1" to="-665787530" departLane="best" type="bus_bus" departSpeed="max"/>
    <trip id="bus6" depart="1231.20" from="-130048902#1" to="-665787530" departLane="best" type="bus_bus" departSpeed="max"/>
    <trip id="bus7" depart="1436.40" from="-130048902#1" to="-665787530" departLane="best" type="bus_bus" departSpeed="max"/>
    <trip id="bus8" depart="1641.61" from="-130048902#1" to="-665787530" departLane="best" type="bus_bus" departSpeed="max"/>
    <trip id="bus9" depart="1846.81" from="-130048902#1" to="-665787530" departLane="best" type="bus_bus" departSpeed="max"/>
    <trip id="bus10" depart="2052.01" from="183710979#0" to="665787533" departLane="best" type="bus_bus" departSpeed="max"/>
    <trip id="bus11" depart="2257.21" from="-130048902#1" to="-665787530" departLane="best" type="bus_bus" departSpeed="max"/>
    <trip id="bus12" depart="2462.41" from="-130048902#1" to="-665787530" departLane="best" type="bus_bus" departSpeed="max"/>
    <trip id="bus13" depart="2667.61" from="-130048902#1" to="-665787530" departLane="best" type="bus_bus" departSpeed="max"/>
    <trip id="bus14" depart="2872.81" from="183710979#0" to="665787533" departLane="best" type="bus_bus" departSpeed="max"/>
    <trip id="bus15" depart="3078.01" from="-130048902#1" to="-665787530" departLane="best" type="bus_bus" departSpeed="max"/>
    <trip id="bus16" depart="3283.21" from="183710979#0" to="665787533" departLane="best" type="bus_bus" departSpeed="max"/>
    <trip id="bus17" depart="3488.41" from="-130048902#1" to="-665787530" departLane="best" type="bus_bus" departSpeed="max"/>
</routes>
