<?xml version="1.0" encoding="UTF-8"?>

<!-- generated on 2025-08-30 20:07:01.858396 by randomTrips.py v1_24_0+0000-b72eb3fabc8
<configuration>
    <net-file value="osm.net.xml.gz"/>
    <output-trip-file value="osm.motorcycle.trips.xml"/>
    <route-file value="osm.motorcycle.rou.xml"/>
    <prefix value="motorcycle"/>
    <trip-attributes value="departLane=&quot;best&quot;"/>
    <fringe-start-attributes value="departSpeed=&quot;max&quot;"/>
    <vehicle-class value="motorcycle"/>
    <fringe-factor value="2"/>
    <edge-permission value="motorcycle"/>
    <via-edge-types value="highway.motorway,highway.motorway_link,highway.trunk_link,highway.primary_link,highway.secondary_link,highway.tertiary_link"/>
    <seed value="43"/>
    <max-distance value="1200.0"/>
    <remove-loops value="True"/>
    <insertion-density value="4.0"/>
</configuration>
-->

<!-- generated on 2025-08-30 20:07:01 by Eclipse SUMO duarouter Version 1.24.0
<duarouterConfiguration xmlns:xsi="http://www.w3.org/2001/XMLSchema-instance" xsi:noNamespaceSchemaLocation="http://sumo.dlr.de/xsd/duarouterConfiguration.xsd">

    <input>
        <net-file value="osm.net.xml.gz"/>
        <route-files value="osm.motorcycle.trips.xml"/>
    </input>

    <output>
        <output-file value="osm.motorcycle.rou.xml"/>
        <alternatives-output value="NUL"/>
    </output>

    <processing>
        <remove-loops value="true"/>
    </processing>

    <time>
        <begin value="0.0"/>
        <end value="3600.0"/>
    </time>

    <report>
        <no-warnings value="true"/>
        <ignore-errors value="true"/>
        <no-step-log value="true"/>
    </report>

</duarouterConfiguration>
-->

<routes xmlns:xsi="http://www.w3.org/2001/XMLSchema-instance" xsi:noNamespaceSchemaLocation="http://sumo.dlr.de/xsd/routes_file.xsd">
    <vType id="motorcycle_motorcycle" vClass="motorcycle"/>
    <vehicle id="motorcycle0" type="motorcycle_motorcycle" depart="0.00" departLane="best">
        <route edges="653727192 -1065952538 -368175444#1 -853618779 853618778#0 853618778#2 853618778#3 853618778#4 35260359#0"/>
    </vehicle>
    <vehicle id="motorcycle1" type="motorcycle_motorcycle" depart="49.54" departLane="best">
        <route edges="-29547816 -853618778#2 -853618778#0 853618779 368175444#1 1225556789 -1392084250 -653727191#1 -712245744#1 -564298126#9 -1392084244#1 -902535590"/>
    </vehicle>
    <vehicle id="motorcycle2" type="motorcycle_motorcycle" depart="99.08" departLane="best">
        <route edges="338477202#1 -35260369#2 -35260369#1 29547826 853618778#0 35260374"/>
    </vehicle>
    <vehicle id="motorcycle3" type="motorcycle_motorcycle" depart="148.62" departLane="best">
        <route edges="-894912572 35260368#1 35260361#0 -853618778#5 -853618778#4 -853618778#3 -853618778#2 -853618778#0 853618779 368175444#1 1225556789 -1392084250 -653727191#1 1054315845#0"/>
    </vehicle>
    <vehicle id="motorcycle4" type="motorcycle_motorcycle" depart="198.16" departLane="best" departSpeed="max">
        <route edges="-1217689481#1 -894912572 35260368#1 35260361#0 -853618778#5 -853618778#4 -853618778#3 -853618778#2 -853618778#0 853618779"/>
    </vehicle>
    <vehicle id="motorcycle5" type="motorcycle_motorcycle" depart="247.70" departLane="best">
        <route edges="-35260375 35260997 853618778#0 853618778#2 853618778#3 853618778#4 853618778#5 -35260361#0 -35260368#1"/>
    </vehicle>
    <vehicle id="motorcycle6" type="motorcycle_motorcycle" depart="297.24" departLane="best">
        <route edges="-853618779 -853619074 158467737#1 35260376#1 -338477202#0"/>
    </vehicle>
    <vehicle id="motorcycle7" type="motorcycle_motorcycle" depart="346.78" departLane="best" departSpeed="max">
        <route edges="360438708 360438706#2 1392084244#2 712245744#0 653727191#0 653727192 -1065952538 -368175444#1 35260379#0 35260379#1"/>
    </vehicle>
    <vehicle id="motorcycle8" type="motorcycle_motorcycle" depart="396.33" departLane="best">
        <route edges="-712245744#1 249396544#0 938252836 961323605#0 961323605#1 -27258652#0"/>
    </vehicle>
    <vehicle id="motorcycle9" type="motorcycle_motorcycle" depart="445.87" departLane="best">
        <route edges="35260370 1225556789 -1392084250 -653727191#1 -712245744#1 249396544#0 249396544#2 249396544#3 27258667"/>
    </vehicle>
    <vehicle id="motorcycle10" type="motorcycle_motorcycle" depart="495.41" departLane="best">
        <route edges="1225556789 -1392084250 -653727191#1 -712245744#1 249396544#0 249396544#2 249396544#3"/>
    </vehicle>
    <vehicle id="motorcycle11" type="motorcycle_motorcycle" depart="544.95" departLane="best">
        <route edges="-712245744#1 -564298126#9 -1392084244#1 -1392084253"/>
    </vehicle>
    <vehicle id="motorcycle12" type="motorcycle_motorcycle" depart="594.49" departLane="best">
        <route edges="-249396544#2 -249396544#1 712245744#0 653727191#0 653727192 -1065952538 -368175444#1 -853618779 853618778#0 853618778#2 853618778#3 853618778#4 853618778#5"/>
    </vehicle>
    <vehicle id="motorcycle13" type="motorcycle_motorcycle" depart="644.03" departLane="best" departSpeed="max">
        <route edges="360438707 360438706#2 1392084244#2 712245744#0 653727191#0 653727192 -1065952538 -368175444#1 -853618779 -853619074 -158467737#0"/>
    </vehicle>
    <vehicle id="motorcycle14" type="motorcycle_motorcycle" depart="693.57" departLane="best">
        <route edges="653727191#0 653727192 -1065952538"/>
    </vehicle>
    <vehicle id="motorcycle15" type="motorcycle_motorcycle" depart="743.11" departLane="best" departSpeed="max">
        <route edges="27258652#0 -961323605#1 -961323605#0 -938252836 -249396544#1 712245744#0 653727191#0 653727192 -1065952538 -368175444#1 -853618779 853618778#0 853618778#2 853618778#3 853618778#4"/>
    </vehicle>
    <vehicle id="motorcycle16" type="motorcycle_motorcycle" depart="792.65" departLane="best">
        <route edges="35260359#0 35260359#1 35260360#0 35260360#1 -29547816 -853618778#2 -853618778#0 853618779 368175444#1 1225556789 -1392084250 -653727191#1 -712245744#1 249396544#0 938252836 961323605#0 961323605#1 -27258652#0"/>
    </vehicle>
    <vehicle id="motorcycle17" type="motorcycle_motorcycle" depart="842.19" departLane="best" departSpeed="max">
        <route edges="29547797#0 29547797#1 -853618778#0 -29547826 35260369#1 35260370"/>
    </vehicle>
    <vehicle id="motorcycle18" type="motorcycle_motorcycle" depart="891.73" departLane="best">
        <route edges="-1392084250 -653727191#1 -712245744#1 -564298126#9 -1030819534 -360438706#0"/>
    </vehicle>
    <vehicle id="motorcycle19" type="motorcycle_motorcycle" depart="941.27" departLane="best">
        <route edges="1392084244#2 712245744#0 653727191#0 653727192 -1065952538 -368175444#1 -853618779 853618778#0 853618778#2 853618778#3 853618778#4 35260359#0 35260359#1"/>
    </vehicle>
    <vehicle id="motorcycle20" type="motorcycle_motorcycle" depart="990.81" departLane="best">
        <route edges="-338477202#1 -35260376#1 -35260376#0 35260997 853618779 368175444#1"/>
    </vehicle>
    <vehicle id="motorcycle21" type="motorcycle_motorcycle" depart="1040.35" departLane="best">
        <route edges="-35260376#1 -35260376#0 35260997 853618779 368175444#1 1225556789 -1392084250 -653727191#1 -712245744#1 -564298126#9 -1392084244#1 -1392084253"/>
    </vehicle>
    <vehicle id="motorcycle22" type="motorcycle_motorcycle" depart="1089.89" departLane="best">
        <route edges="27258666 -938252836 -249396544#1 712245744#0 653727191#0 653727192 -1065952538 -368175444#1"/>
    </vehicle>
    <vehicle id="motorcycle23" type="motorcycle_motorcycle" depart="1139.43" departLane="best" departSpeed="max">
        <route edges="902535590 1392084244#0 1392084244#2 712245744#0 653727191#0 653727192 -1065952538 -368175444#1 -853618779 -853619074 158467737#1"/>
    </vehicle>
    <vehicle id="motorcycle24" type="motorcycle_motorcycle" depart="1188.98" departLane="best" departSpeed="max">
        <route edges="-27258697 922415126 1054315845#0"/>
    </vehicle>
    <vehicle id="motorcycle25" type="motorcycle_motorcycle" depart="1238.52" departLane="best">
        <route edges="-35260376#1 -35260376#0 35260997 853618778#0 853618778#2 853618778#3 853618778#4 853618778#5 853618778#6"/>
    </vehicle>
    <vehicle id="motorcycle26" type="motorcycle_motorcycle" depart="1288.06" departLane="best">
        <route edges="35260361#0 -853618778#5 -853618778#4 -853618778#3 -853618778#2 -853618778#0 853618779 368175444#1 1225556789 -1392084250"/>
    </vehicle>
    <vehicle id="motorcycle27" type="motorcycle_motorcycle" depart="1337.60" departLane="best" departSpeed="max">
        <route edges="902535590 1392084244#0 1392084244#2 249396544#0 249396544#2 249396544#3 27258667"/>
    </vehicle>
    <vehicle id="motorcycle28" type="motorcycle_motorcycle" depart="1387.14" departLane="best" departSpeed="max">
        <route edges="-27258652#1 -961323605#1 -961323605#0 -938252836 -249396544#1 712245744#0 653727191#0 653727192 -1065952538 -368175444#1 -853618779 853618778#0 -29547797#1 -29547797#0"/>
    </vehicle>
    <vehicle id="motorcycle29" type="motorcycle_motorcycle" depart="1436.68" departLane="best" departSpeed="max">
        <route edges="-27258652#1 -961323605#1 -961323605#0 -938252836 -249396544#1 712245744#0 653727191#0 653727192 -1065952538 -368175444#1 35260369#0 29547826"/>
    </vehicle>
    <vehicle id="motorcycle30" type="motorcycle_motorcycle" depart="1486.22" departLane="best">
        <route edges="-29547818 -853618778#3 -853618778#2 -853618778#0 -853619074 158467737#1 35260376#1"/>
    </vehicle>
    <vehicle id="motorcycle31" type="motorcycle_motorcycle" depart="1535.76" departLane="best" departSpeed="max">
        <route edges="-27258697 922415126 -712245744#1 -564298126#9 -1392084244#1"/>
    </vehicle>
    <vehicle id="motorcycle32" type="motorcycle_motorcycle" depart="1585.30" departLane="best">
        <route edges="35260997 853618779 368175444#1 1225556789 -1392084250"/>
    </vehicle>
    <vehicle id="motorcycle33" type="motorcycle_motorcycle" depart="1634.84" departLane="best">
        <route edges="360438706#2 1392084244#2 712245744#0"/>
    </vehicle>
    <vehicle id="motorcycle34" type="motorcycle_motorcycle" depart="1684.38" departLane="best">
        <route edges="922415126 653727191#0 653727192 -1065952538 -368175444#1 -853618779 853618778#0 -29547797#1 -29547797#0"/>
    </vehicle>
    <vehicle id="motorcycle35" type="motorcycle_motorcycle" depart="1733.92" departLane="best">
        <route edges="35260368#1 35260361#0 -853618778#5 -853618778#4 -853618778#3 -853618778#2 -853618778#0 853618779 368175444#1 1225556789 -1392084250 -653727191#1 -712245744#1 249396544#0 938252836 961323605#0"/>
    </vehicle>
    <vehicle id="motorcycle36" type="motorcycle_motorcycle" depart="1783.46" departLane="best">
        <route edges="712245744#0 653727191#0"/>
    </vehicle>
    <vehicle id="motorcycle37" type="motorcycle_motorcycle" depart="1833.00" departLane="best">
        <route edges="-35260379#1 -35260379#0 -853618779 853618778#0 853618778#2 853618778#3 29547818 35260360#1"/>
    </vehicle>
    <vehicle id="motorcycle38" type="motorcycle_motorcycle" depart="1882.54" departLane="best" departSpeed="max">
        <route edges="1217689481#0 -894912572 35260368#1 35260368#2 -35260359#0 853618778#5"/>
    </vehicle>
    <vehicle id="motorcycle39" type="motorcycle_motorcycle" depart="1932.09" departLane="best">
        <route edges="35260360#1 -29547816 -853618778#2 -853618778#0 853618779 368175444#1"/>
    </vehicle>
    <vehicle id="motorcycle40" type="motorcycle_motorcycle" depart="1981.63" departLane="best">
        <route edges="368175444#1 1225556789 -1392084250 -653727191#1"/>
    </vehicle>
    <vehicle id="motorcycle41" type="motorcycle_motorcycle" depart="2031.17" departLane="best">
        <route edges="35260361#0 -853618778#5 -853618778#4 -853618778#3 -853618778#2 -853618778#0 853618779 368175444#1 1225556789 -1392084250 -653727191#1 -712245744#1 249396544#0 938252836 961323605#0 961323605#1 -27258652#0"/>
    </vehicle>
    <vehicle id="motorcycle42" type="motorcycle_motorcycle" depart="2080.71" departLane="best">
        <route edges="-35260360#0 -35260359#1 -35260359#0 853618778#5"/>
    </vehicle>
    <vehicle id="motorcycle43" type="motorcycle_motorcycle" depart="2130.25" departLane="best">
        <route edges="-853618778#4 -853618778#3 -853618778#2 -853618778#0 -29547826 35260369#1 35260369#2 338477202#2"/>
    </vehicle>
    <vehicle id="motorcycle44" type="motorcycle_motorcycle" depart="2179.79" departLane="best" departSpeed="max">
        <route edges="27258652#0 -961323605#1 -961323605#0 -938252836 -249396544#1 712245744#0 653727191#0 653727192 -1065952538 -35260370 -35260369#1 -35260369#0"/>
    </vehicle>
    <vehicle id="motorcycle45" type="motorcycle_motorcycle" depart="2229.33" departLane="best" departSpeed="max">
        <route edges="27258652#0 -961323605#1 -961323605#0 -938252836 -249396544#1 712245744#0 653727191#0 653727192 -1065952538 -368175444#1 -853618779 853618778#0"/>
    </vehicle>
    <vehicle id="motorcycle46" type="motorcycle_motorcycle" depart="2278.87" departLane="best">
        <route edges="-35260379#0 368175444#1 1225556789 -1392084250 -653727191#1 -712245744#1 -564298126#9 -1030819534 -360438707"/>
    </vehicle>
    <vehicle id="motorcycle47" type="motorcycle_motorcycle" depart="2328.41" departLane="best" departSpeed="max">
        <route edges="-338477202#2 -338477202#1 -338477202#0"/>
    </vehicle>
    <vehicle id="motorcycle48" type="motorcycle_motorcycle" depart="2377.95" departLane="best" departSpeed="max">
        <route edges="360438707 360438706#2 1392084244#2 712245744#0 653727191#0 653727192 -1065952538 -368175444#1 -853618779 853618778#0 853618778#2 853618778#3 853618778#4 35260359#0 35260359#1 35260360#0"/>
    </vehicle>
    <vehicle id="motorcycle49" type="motorcycle_motorcycle" depart="2427.49" departLane="best" departSpeed="max">
        <route edges="902535590 1392084244#0 1392084244#2 712245744#0 653727191#0 653727192 -1065952538 -368175444#1 -853618779 -853619074 158467737#1 35260376#1 338477202#1"/>
    </vehicle>
    <vehicle id="motorcycle50" type="motorcycle_motorcycle" depart="2477.03" departLane="best" departSpeed="max">
        <route edges="902535590 1392084244#0 1392084244#2 712245744#0 653727191#0 653727192 -1065952538 -368175444#1 -853618779 853618778#0 -29547797#1 -35260360#2"/>
    </vehicle>
    <vehicle id="motorcycle51" type="motorcycle_motorcycle" depart="2526.57" departLane="best">
        <route edges="-35260359#0 -853618778#4 -853618778#3 -853618778#2 -29547797#1 -35260360#2"/>
    </vehicle>
    <vehicle id="motorcycle52" type="motorcycle_motorcycle" depart="2576.11" departLane="best">
        <route edges="-853618778#0 853618779 368175444#1 1225556789 -1392084250 -653727191#1 -712245744#1 249396544#0 938252836 961323605#0"/>
    </vehicle>
    <vehicle id="motorcycle53" type="motorcycle_motorcycle" depart="2625.65" departLane="best">
        <route edges="-35260361#0 35260368#2 -35260359#0 -853618778#4 -853618778#3 -853618778#2 -853618778#0 853618779 368175444#1 1225556789 -1392084250 -653727191#1 -712245744#1 -564298126#9 -1392084244#1 -902535590"/>
    </vehicle>
    <vehicle id="motorcycle54" type="motorcycle_motorcycle" depart="2675.19" departLane="best">
        <route edges="-249396544#2 -249396544#1 712245744#0 653727191#0 653727192 -1065952538 -368175444#1 -853618779 853618778#0 853618778#2 853618778#3 853618778#4 853618778#5 -35260361#0 -35260368#1 894912572 -1217689481#0"/>
    </vehicle>
    <vehicle id="motorcycle55" type="motorcycle_motorcycle" depart="2724.74" departLane="best">
        <route edges="-368175444#1 -853618779 853618778#0 853618778#2 853618778#3 853618778#4 853618778#5 853618778#6"/>
    </vehicle>
    <vehicle id="motorcycle56" type="motorcycle_motorcycle" depart="2774.28" departLane="best" departSpeed="max">
        <route edges="27258652#0 -961323605#1 -961323605#0 -938252836 -249396544#1 712245744#0 653727191#0 653727192 -1065952538 -35260370 -35260369#1 -35260369#0"/>
    </vehicle>
    <vehicle id="motorcycle57" type="motorcycle_motorcycle" depart="2823.82" departLane="best" departSpeed="max">
        <route edges="-273622079#1 -273622079#0 -35260379#0 35260369#0"/>
    </vehicle>
    <vehicle id="motorcycle58" type="motorcycle_motorcycle" depart="2873.36" departLane="best">
        <route edges="-29547818 -853618778#3 -853618778#2 -853618778#0 853618779 368175444#1 1225556789 -1392084250 -653727191#1 -712245744#1 -564298126#9 -1030819534"/>
    </vehicle>
    <vehicle id="motorcycle59" type="motorcycle_motorcycle" depart="2922.90" departLane="best">
        <route edges="35260360#1 35260360#2 -29547797#0"/>
    </vehicle>
    <vehicle id="motorcycle60" type="motorcycle_motorcycle" depart="2972.44" departLane="best" departSpeed="max">
        <route edges="29547797#0 -35260360#2 -35260360#1 -35260360#0 -35260359#1"/>
    </vehicle>
    <vehicle id="motorcycle61" type="motorcycle_motorcycle" depart="3021.98" departLane="best" departSpeed="max">
        <route edges="-853618778#6 -35260361#0 -35260368#1 894912572 -1217689481#0"/>
    </vehicle>
    <vehicle id="motorcycle62" type="motorcycle_motorcycle" depart="3071.52" departLane="best">
        <route edges="-712245744#1 -564298126#9 -1030819534 -360438706#0"/>
    </vehicle>
    <vehicle id="motorcycle63" type="motorcycle_motorcycle" depart="3121.06" departLane="best">
        <route edges="-35260369#0 -853618779 853618778#0 -29547797#1 -29547797#0"/>
    </vehicle>
    <vehicle id="motorcycle64" type="motorcycle_motorcycle" depart="3170.60" departLane="best" departSpeed="max">
        <route edges="27258652#0 -961323605#1 -961323605#0 -938252836 -249396544#1 712245744#0 653727191#0 653727192 -1065952538 -368175444#1 -853618779 853618778#0 853618778#2 853618778#3 853618778#4 35260359#0"/>
    </vehicle>
    <vehicle id="motorcycle65" type="motorcycle_motorcycle" depart="3220.14" departLane="best">
        <route edges="-35260359#1 -35260359#0 -853618778#4 -853618778#3 -853618778#2 -853618778#0 853618779 368175444#1 1225556789 -1392084250 -653727191#1 -712245744#1 -564298126#9 -1392084244#1 -1392084253"/>
    </vehicle>
    <vehicle id="motorcycle66" type="motorcycle_motorcycle" depart="3269.68" departLane="best">
        <route edges="-35260369#1 29547826 853618778#0 853618778#2 853618778#3 853618778#4 35260359#0 35260359#1"/>
    </vehicle>
    <vehicle id="motorcycle67" type="motorcycle_motorcycle" depart="3319.22" departLane="best">
        <route edges="-35260369#1 29547826 853618778#0 853618778#2 29547816"/>
    </vehicle>
    <vehicle id="motorcycle68" type="motorcycle_motorcycle" depart="3368.76" departLane="best" departSpeed="max">
        <route edges="-27258652#1 -961323605#1 -961323605#0 -938252836 -249396544#1 712245744#0 653727191#0 653727192 -1065952538 -368175444#1 -853618779 853618778#0 853618778#2 853618778#3 853618778#4 35260359#0 35260359#1"/>
    </vehicle>
    <vehicle id="motorcycle69" type="motorcycle_motorcycle" depart="3418.30" departLane="best">
        <route edges="-29547797#1 -35260360#2 -35260360#1 -35260360#0 -35260359#1 -35260359#0 853618778#5 -35260361#0"/>
    </vehicle>
    <vehicle id="motorcycle70" type="motorcycle_motorcycle" depart="3467.85" departLane="best" departSpeed="max">
        <route edges="35260368#0 35260368#1 35260361#0 -853618778#5 -853618778#4 -853618778#3 -853618778#2 -853618778#0 853618779 368175444#1 1225556789 -1392084250 -653727191#1 -712245744#1 249396544#0 249396544#2 249396544#3 27258667 -961323605#0"/>
    </vehicle>
    <vehicle id="motorcycle71" type="motorcycle_motorcycle" depart="3517.39" departLane="best">
        <route edges="29547818 35260360#1 -29547816 -853618778#2 -853618778#0 853618779 368175444#1 -35260370"/>
    </vehicle>
    <vehicle id="motorcycle72" type="motorcycle_motorcycle" depart="3566.93" departLane="best" departSpeed="max">
        <route edges="338477202#0 -35260376#1 -35260376#0"/>
    </vehicle>
</routes>
