<?xml version="1.0" encoding="UTF-8"?>

<!-- generated on 2025-08-30 20:07:03.536857 by randomTrips.py v1_24_0+0000-b72eb3fabc8
<configuration>
    <net-file value="osm.net.xml.gz"/>
    <output-trip-file value="osm.truck.trips.xml"/>
    <route-file value="osm.truck.rou.xml"/>
    <prefix value="truck"/>
    <trip-attributes value="departLane=&quot;best&quot;"/>
    <fringe-start-attributes value="departSpeed=&quot;max&quot;"/>
    <vehicle-class value="truck"/>
    <fringe-factor value="5"/>
    <edge-permission value="truck"/>
    <via-edge-types value="highway.motorway,highway.motorway_link,highway.trunk_link,highway.primary_link,highway.secondary_link,highway.tertiary_link"/>
    <seed value="45"/>
    <min-distance value="600.0"/>
    <min-distance.fringe value="10.0"/>
    <remove-loops value="True"/>
    <insertion-density value="8.0"/>
</configuration>
-->

<!-- generated on 2025-08-30 20:07:03 by Eclipse SUMO duarouter Version 1.24.0
<duarouterConfiguration xmlns:xsi="http://www.w3.org/2001/XMLSchema-instance" xsi:noNamespaceSchemaLocation="http://sumo.dlr.de/xsd/duarouterConfiguration.xsd">

    <input>
        <net-file value="osm.net.xml.gz"/>
        <route-files value="osm.truck.trips.xml"/>
    </input>

    <output>
        <output-file value="osm.truck.rou.xml"/>
        <alternatives-output value="NUL"/>
    </output>

    <processing>
        <remove-loops value="true"/>
    </processing>

    <time>
        <begin value="0.0"/>
        <end value="3600.0"/>
    </time>

    <report>
        <no-warnings value="true"/>
        <ignore-errors value="true"/>
        <no-step-log value="true"/>
    </report>

</duarouterConfiguration>
-->

<routes xmlns:xsi="http://www.w3.org/2001/XMLSchema-instance" xsi:noNamespaceSchemaLocation="http://sumo.dlr.de/xsd/routes_file.xsd">
    <vType id="truck_truck" vClass="truck"/>
    <vehicle id="truck0" type="truck_truck" depart="0.00" departLane="best">
        <route edges="-35260369#0 368175444#1 1225556789 -1392084250 -653727191#1 1054315845#0"/>
    </vehicle>
    <vehicle id="truck1" type="truck_truck" depart="24.77" departLane="best" departSpeed="max">
        <route edges="-27258652#1 -961323605#1 -961323605#0 -938252836 -249396544#1 712245744#0 653727191#0 653727192 -1065952538 -368175444#1 -853618779 853618778#0 853618778#2 853618778#3 853618778#4 853618778#5 -35260361#0 -35260368#1 894912572 -1217689481#0"/>
    </vehicle>
    <vehicle id="truck2" type="truck_truck" depart="49.54" departLane="best" departSpeed="max">
        <route edges="-27258652#1 -961323605#1 -961323605#0 -938252836 -249396544#1 712245744#0 653727191#0 653727192 -1065952538 -368175444#1 -853618779 853618778#0"/>
    </vehicle>
    <vehicle id="truck3" type="truck_truck" depart="74.31" departLane="best">
        <route edges="-249396544#1 712245744#0 653727191#0 653727192 -1065952538 -368175444#1 -853618779 853618778#0 853618778#2 853618778#3 853618778#4 853618778#5"/>
    </vehicle>
    <vehicle id="truck4" type="truck_truck" depart="99.08" departLane="best" departSpeed="max">
        <route edges="338477202#0 -35260376#1 -35260376#0 35260997 853618779 368175444#1 1225556789 -1392084250 -653727191#1 1054315845#0"/>
    </vehicle>
    <vehicle id="truck5" type="truck_truck" depart="123.85" departLane="best" departSpeed="max">
        <route edges="-27258652#1 -961323605#1 -961323605#0 -938252836 -249396544#1 712245744#0 653727191#0 653727192 -1065952538 -368175444#1 -853618779 853618778#0 -29547797#1 -29547797#0"/>
    </vehicle>
    <vehicle id="truck6" type="truck_truck" depart="148.62" departLane="best">
        <route edges="-853618778#3 -853618778#2 -853618778#0 853618779 368175444#1 1225556789 -1392084250 -653727191#1 -712245744#1 249396544#0 249396544#2 27258666"/>
    </vehicle>
    <vehicle id="truck7" type="truck_truck" depart="173.39" departLane="best" departSpeed="max">
        <route edges="-27258652#1 -961323605#1 -961323605#0 -938252836 -249396544#1 712245744#0 653727191#0 653727192 -1065952538 -368175444#1 35260369#0 35260369#1 35260369#2 338477202#2"/>
    </vehicle>
    <vehicle id="truck8" type="truck_truck" depart="198.16" departLane="best" departSpeed="max">
        <route edges="360438707 360438706#2 1392084244#2 712245744#0 653727191#0 653727192 -1065952538 -368175444#1 35260369#0 35260369#1 35260369#2 338477202#2"/>
    </vehicle>
    <vehicle id="truck9" type="truck_truck" depart="222.93" departLane="best">
        <route edges="1392084244#0 1392084244#2 712245744#0 653727191#0 653727192 -1065952538 -368175444#1 35260369#0 35260369#1 35260369#2 338477202#2"/>
    </vehicle>
    <vehicle id="truck10" type="truck_truck" depart="247.70" departLane="best" departSpeed="max">
        <route edges="338477202#0 -35260376#1 -35260376#0 35260997 853618779 368175444#1 1225556789 -1392084250 -653727191#1 -712245744#1 249396544#0 938252836 961323605#0 961323605#1 27258652#1"/>
    </vehicle>
    <vehicle id="truck11" type="truck_truck" depart="272.47" departLane="best">
        <route edges="-35260360#2 -29547816 -853618778#2 -853618778#0 853618779 368175444#1 1225556789 -1392084250 -653727191#1 -712245744#1 -564298126#9 -1392084244#1 -1392084253"/>
    </vehicle>
    <vehicle id="truck12" type="truck_truck" depart="297.24" departLane="best">
        <route edges="-249396544#1 712245744#0 653727191#0 653727192 -1065952538 -368175444#1 -853618779 853618778#0 853618778#2 853618778#3 853618778#4 853618778#5 -35260361#0 -35260368#1"/>
    </vehicle>
    <vehicle id="truck13" type="truck_truck" depart="322.01" departLane="best" departSpeed="max">
        <route edges="1392084253 1392084244#0 1392084244#2 712245744#0 653727191#0 653727192 -1065952538 -368175444#1"/>
    </vehicle>
    <vehicle id="truck14" type="truck_truck" depart="346.78" departLane="best" departSpeed="max">
        <route edges="27258652#0 -961323605#1 -961323605#0 -938252836 -249396544#1 712245744#0 653727191#0 653727192 -1065952538 -368175444#1 -853618779 853618778#0 853618778#2 853618778#3 853618778#4 853618778#5 -35260361#0 35260368#2"/>
    </vehicle>
    <vehicle id="truck15" type="truck_truck" depart="371.55" departLane="best" departSpeed="max">
        <route edges="-853618778#6 -853618778#5 -853618778#4 -853618778#3 -853618778#2 -853618778#0 853618779 368175444#1 1225556789 -1392084250 -653727191#1 -712245744#1 249396544#0 938252836 961323605#0 961323605#1 27258652#1"/>
    </vehicle>
    <vehicle id="truck16" type="truck_truck" depart="396.33" departLane="best" departSpeed="max">
        <route edges="27258652#0 -961323605#1 -961323605#0 -938252836 -249396544#1 712245744#0 653727191#0 653727192 -1065952538 -368175444#1 -853618779 853618778#0"/>
    </vehicle>
    <vehicle id="truck17" type="truck_truck" depart="421.10" departLane="best" departSpeed="max">
        <route edges="360438708 360438706#2 1392084244#2 712245744#0 653727191#0 653727192 -1065952538 -368175444#1 -853618779 853618778#0 35260374"/>
    </vehicle>
    <vehicle id="truck18" type="truck_truck" depart="445.87" departLane="best" departSpeed="max">
        <route edges="1392084253 1392084244#0 1392084244#2 712245744#0 653727191#0 653727192 -1065952538 -368175444#1 -853618779 853618778#0 853618778#2 853618778#3 853618778#4 853618778#5 -35260361#0 -35260368#1 -35260368#0"/>
    </vehicle>
    <vehicle id="truck19" type="truck_truck" depart="470.64" departLane="best">
        <route edges="-27258667 -249396544#3 -249396544#2 -249396544#1 712245744#0 653727191#0 653727192 -1065952538 -368175444#1 -853618779 853618778#0 853618778#2"/>
    </vehicle>
    <vehicle id="truck20" type="truck_truck" depart="495.41" departLane="best" departSpeed="max">
        <route edges="338477202#0 -35260376#1 -35260376#0 35260997 853618779 368175444#1 1225556789 -1392084250 -653727191#1 -712245744#1 -564298126#9 -1392084244#1 -902535590"/>
    </vehicle>
    <vehicle id="truck21" type="truck_truck" depart="520.18" departLane="best" departSpeed="max">
        <route edges="1054315844#0 555020953#0 -712245744#1 249396544#0 938252836 961323605#0 961323605#1 -27258652#0"/>
    </vehicle>
    <vehicle id="truck22" type="truck_truck" depart="544.95" departLane="best" departSpeed="max">
        <route edges="564298145#0 922415126 1054315845#0"/>
    </vehicle>
    <vehicle id="truck23" type="truck_truck" depart="569.72" departLane="best">
        <route edges="1392084244#0 1392084244#2 712245744#0 653727191#0 653727192 560538898#0"/>
    </vehicle>
    <vehicle id="truck24" type="truck_truck" depart="594.49" departLane="best" departSpeed="max">
        <route edges="27258652#0 -961323605#1 -961323605#0 -938252836 -249396544#1 712245744#0 653727191#0 653727192 -1065952538 -368175444#1 -853618779 853618778#0 853618778#2 853618778#3 853618778#4 853618778#5 35260361#1"/>
    </vehicle>
    <vehicle id="truck25" type="truck_truck" depart="619.26" departLane="best" departSpeed="max">
        <route edges="-560538898#1 -1392084250 -653727191#1 -712245744#1 -564298126#9 -1030819534 -360438708"/>
    </vehicle>
    <vehicle id="truck26" type="truck_truck" depart="644.03" departLane="best">
        <route edges="-29547816 -853618778#2 -853618778#0 853618779 368175444#1 1225556789 -1392084250 -653727191#1 -712245744#1 249396544#0 938252836 961323605#0 961323605#1 -27258652#0"/>
    </vehicle>
    <vehicle id="truck27" type="truck_truck" depart="668.80" departLane="best">
        <route edges="338477202#1 -35260369#2 35260370 1225556789 -1392084250 -653727191#1 -712245744#1 -564298126#9 -1030819534 -360438708"/>
    </vehicle>
    <vehicle id="truck28" type="truck_truck" depart="693.57" departLane="best">
        <route edges="-853618778#4 -853618778#3 -853618778#2 -853618778#0 853618779 368175444#1 1225556789 -1392084250 -653727191#1 -712245744#1 -564298126#9 -1392084244#1 -902535590"/>
    </vehicle>
    <vehicle id="truck29" type="truck_truck" depart="718.34" departLane="best" departSpeed="max">
        <route edges="360438707 360438706#2 1392084244#2 712245744#0 653727191#0 653727192 -1065952538 -368175444#1 35260369#0 35260369#1 35260369#2 338477202#2"/>
    </vehicle>
    <vehicle id="truck30" type="truck_truck" depart="743.11" departLane="best" departSpeed="max">
        <route edges="-27258652#1 -961323605#1 -961323605#0 -938252836 -249396544#1 712245744#0 653727191#0 653727192 -1065952538 -368175444#1 -853618779 853618778#0 -29547797#1 -29547797#0"/>
    </vehicle>
    <vehicle id="truck31" type="truck_truck" depart="767.88" departLane="best" departSpeed="max">
        <route edges="-35260361#1 -853618778#5 -853618778#4 -853618778#3 -853618778#2 -853618778#0 853618779 368175444#1 1225556789 -1392084250 -653727191#1 -712245744#1 -564298126#9 -1392084244#1 -902535590"/>
    </vehicle>
    <vehicle id="truck32" type="truck_truck" depart="792.65" departLane="best">
        <route edges="-853618778#3 -853618778#2 -853618778#0 853618779 368175444#1 1225556789 -1392084250 -653727191#1 1054315845#0"/>
    </vehicle>
    <vehicle id="truck33" type="truck_truck" depart="817.42" departLane="best">
        <route edges="29547797#1 -853618778#0 853618779 368175444#1 1225556789 -1392084250 -653727191#1 -712245744#1 -564298126#9 -1392084244#1 -1392084253"/>
    </vehicle>
    <vehicle id="truck34" type="truck_truck" depart="842.19" departLane="best">
        <route edges="-961323605#1 -961323605#0 -938252836 -249396544#1 712245744#0 1054315845#0"/>
    </vehicle>
    <vehicle id="truck35" type="truck_truck" depart="866.96" departLane="best">
        <route edges="-961323605#1 -961323605#0 -938252836 -249396544#1 712245744#0 653727191#0 653727192 -1065952538 -368175444#1 -853618779 -853619074 158467737#1 35260376#1 338477202#1"/>
    </vehicle>
    <vehicle id="truck36" type="truck_truck" depart="891.73" departLane="best">
        <route edges="-35260369#1 -35260369#0 368175444#1 1225556789 -1392084250 -653727191#1 -712245744#1 249396544#0 938252836 961323605#0 -27258667 -249396544#3"/>
    </vehicle>
    <vehicle id="truck37" type="truck_truck" depart="916.50" departLane="best">
        <route edges="-938252836 -249396544#1 712245744#0 653727191#0 653727192 -1065952538 -368175444#1 -853618779 853618778#0 853618778#2 853618778#3 853618778#4 853618778#5 -35260361#0 -35260368#1 -35260368#0"/>
    </vehicle>
    <vehicle id="truck38" type="truck_truck" depart="941.27" departLane="best" departSpeed="max">
        <route edges="338477202#0 -35260376#1 -35260376#0 35260997 853618779 368175444#1 1225556789 -1392084250 -653727191#1 1054315845#0"/>
    </vehicle>
    <vehicle id="truck39" type="truck_truck" depart="966.04" departLane="best">
        <route edges="-338477202#1 -35260376#1 -35260376#0 35260997 853618779 368175444#1 1225556789 -1392084250 -653727191#1 -712245744#1 249396544#0 938252836 961323605#0 961323605#1 27258652#1"/>
    </vehicle>
    <vehicle id="truck40" type="truck_truck" depart="990.81" departLane="best" departSpeed="max">
        <route edges="-35260374 -853618778#0 853618779 368175444#1 1225556789 -1392084250 -653727191#1 -712245744#1 249396544#0 249396544#2"/>
    </vehicle>
    <vehicle id="truck41" type="truck_truck" depart="1015.58" departLane="best" departSpeed="max">
        <route edges="564298145#0 922415126 653727191#0 653727192 -1065952538 -368175444#1 -853618779 853618778#0 853618778#2 853618778#3 853618778#4 853618778#5 -35260361#0 -35260368#1 -35260368#0"/>
    </vehicle>
    <vehicle id="truck42" type="truck_truck" depart="1040.35" departLane="best" departSpeed="max">
        <route edges="564298145#0 922415126 653727191#0 653727192 -1065952538 -368175444#1 -853618779 853618778#0 853618778#2 853618778#3 853618778#4 853618778#5 853618778#6"/>
    </vehicle>
    <vehicle id="truck43" type="truck_truck" depart="1065.12" departLane="best" departSpeed="max">
        <route edges="-853618778#6 -853618778#5 -853618778#4 -853618778#3 -853618778#2 -853618778#0 853618779 368175444#1 1225556789 -1392084250 -653727191#1 -712245744#1"/>
    </vehicle>
    <vehicle id="truck44" type="truck_truck" depart="1089.89" departLane="best" departSpeed="max">
        <route edges="564298145#0 922415126 653727191#0 653727192 -1065952538 -368175444#1 -853618779 853618778#0 853618778#2 853618778#3 853618778#4 853618778#5 -35260361#0 -35260368#1 -35260368#0"/>
    </vehicle>
    <vehicle id="truck45" type="truck_truck" depart="1114.66" departLane="best" departSpeed="max">
        <route edges="-27258697 922415126 653727191#0 653727192 -1065952538 -368175444#1 35260369#0 35260369#1 35260369#2 338477202#2"/>
    </vehicle>
    <vehicle id="truck46" type="truck_truck" depart="1139.43" departLane="best" departSpeed="max">
        <route edges="1217689481#0 -894912572 35260368#1 35260361#0 -853618778#5 -853618778#4 -853618778#3 -853618778#2 -853618778#0 853618779 368175444#1 1225556789 -1392084250 -653727191#1 -712245744#1 249396544#0 938252836 961323605#0 961323605#1 -27258652#0"/>
    </vehicle>
    <vehicle id="truck47" type="truck_truck" depart="1164.21" departLane="best" departSpeed="max">
        <route edges="338477202#0 -35260376#1 -35260376#0 35260997 853618779 368175444#1 1225556789 -1392084250 -653727191#1 -712245744#1 -564298126#9 -1030819534 -360438707"/>
    </vehicle>
    <vehicle id="truck48" type="truck_truck" depart="1188.98" departLane="best" departSpeed="max">
        <route edges="-27258652#1 -961323605#1 -961323605#0 -938252836 -249396544#1 712245744#0 653727191#0 653727192 -1065952538 -368175444#1 -853618779 -853619074 158467737#1 35260376#1 -338477202#0"/>
    </vehicle>
    <vehicle id="truck49" type="truck_truck" depart="1213.75" departLane="best" departSpeed="max">
        <route edges="1054315844#0 555020953#0 653727191#0 653727192 -1065952538 -368175444#1"/>
    </vehicle>
    <vehicle id="truck50" type="truck_truck" depart="1238.52" departLane="best">
        <route edges="-29547818 -853618778#3 -853618778#2 -853618778#0 -853619074 158467737#1 35260376#1 -338477202#0"/>
    </vehicle>
    <vehicle id="truck51" type="truck_truck" depart="1263.29" departLane="best">
        <route edges="-29547818 -853618778#3 -853618778#2 -853618778#0 853618779 368175444#1 1225556789 -1392084250 -653727191#1 -712245744#1 249396544#0 938252836 961323605#0 961323605#1 27258652#1"/>
    </vehicle>
    <vehicle id="truck52" type="truck_truck" depart="1288.06" departLane="best">
        <route edges="-961323605#1 -961323605#0 -938252836 -249396544#1 712245744#0 653727191#0 653727192 -1065952538 -368175444#1 -853618779 853618778#0 853618778#2 853618778#3 853618778#4 853618778#5 -35260361#0 -35260368#1 894912572 1217689481#1"/>
    </vehicle>
    <vehicle id="truck53" type="truck_truck" depart="1312.83" departLane="best" departSpeed="max">
        <route edges="360438708 360438706#2 1392084244#2 712245744#0 653727191#0 653727192 -1065952538 -368175444#1 -853618779 853618778#0 853618778#2 853618778#3 853618778#4 853618778#5 853618778#6"/>
    </vehicle>
    <vehicle id="truck54" type="truck_truck" depart="1337.60" departLane="best">
        <route edges="-27258667 -249396544#3 -249396544#2 -249396544#1 712245744#0 653727191#0 653727192 -1065952538 -368175444#1 -853618779 853618778#0 853618778#2 853618778#3 853618778#4 853618778#5 35260361#1"/>
    </vehicle>
    <vehicle id="truck55" type="truck_truck" depart="1362.37" departLane="best">
        <route edges="-35260376#1 -35260376#0 35260997 853618779 368175444#1 1225556789 -1392084250 -653727191#1 -712245744#1 249396544#0 938252836 961323605#0 961323605#1 -27258652#0"/>
    </vehicle>
    <vehicle id="truck56" type="truck_truck" depart="1387.14" departLane="best" departSpeed="max">
        <route edges="1392084253 1392084244#0 1392084244#2 712245744#0 653727191#0 653727192 -1065952538 -368175444#1 -853618779 853618778#0 853618778#2 29547816"/>
    </vehicle>
    <vehicle id="truck57" type="truck_truck" depart="1411.91" departLane="best" departSpeed="max">
        <route edges="338477202#0 -35260376#1 -35260376#0 35260997 853618779 368175444#1 1225556789"/>
    </vehicle>
    <vehicle id="truck58" type="truck_truck" depart="1436.68" departLane="best">
        <route edges="-938252836 -249396544#1 712245744#0 653727191#0 653727192 -1065952538 -368175444#1 -853618779 853618778#0 853618778#2 853618778#3 853618778#4 853618778#5 -35260361#0 -35260368#1 894912572"/>
    </vehicle>
    <vehicle id="truck59" type="truck_truck" depart="1461.45" departLane="best">
        <route edges="27258666 -938252836 -249396544#1 712245744#0 653727191#0 653727192 -1065952538 -368175444#1 35260369#0 35260369#1 35260369#2 338477202#2"/>
    </vehicle>
    <vehicle id="truck60" type="truck_truck" depart="1486.22" departLane="best">
        <route edges="-249396544#3 -249396544#2 -249396544#1 712245744#0 653727191#0 653727192 -1065952538 -368175444#1 -853618779 853618778#0 853618778#2 853618778#3 853618778#4 853618778#5 -35260361#0"/>
    </vehicle>
    <vehicle id="truck61" type="truck_truck" depart="1510.99" departLane="best">
        <route edges="-853618778#4 -853618778#3 -853618778#2 -853618778#0 853618779 368175444#1 1225556789 -1392084250 -653727191#1 -712245744#1 249396544#0 249396544#2 249396544#3"/>
    </vehicle>
    <vehicle id="truck62" type="truck_truck" depart="1535.76" departLane="best" departSpeed="max">
        <route edges="360438706#0 360438706#2 1392084244#2 712245744#0 653727191#0 653727192 560538898#0"/>
    </vehicle>
    <vehicle id="truck63" type="truck_truck" depart="1560.53" departLane="best" departSpeed="max">
        <route edges="1054315844#0 555020953#0 653727191#0 653727192 -1065952538 -368175444#1 -853618779 853618778#0 853618778#2"/>
    </vehicle>
    <vehicle id="truck64" type="truck_truck" depart="1585.30" departLane="best">
        <route edges="-853618778#2 -853618778#0 853618779 368175444#1 1225556789 -1392084250 -653727191#1 -712245744#1 249396544#0 938252836 961323605#0 -27258667 -249396544#3"/>
    </vehicle>
    <vehicle id="truck65" type="truck_truck" depart="1610.07" departLane="best" departSpeed="max">
        <route edges="360438707 360438706#2 1392084244#2 712245744#0 653727191#0 653727192 -1065952538 -368175444#1 35260369#0 35260369#1 35260369#2"/>
    </vehicle>
    <vehicle id="truck66" type="truck_truck" depart="1634.84" departLane="best" departSpeed="max">
        <route edges="-560538898#1 -1065952538 -368175444#1 -853618779 -853619074 158467737#1 35260376#1 -338477202#0"/>
    </vehicle>
    <vehicle id="truck67" type="truck_truck" depart="1659.61" departLane="best" departSpeed="max">
        <route edges="-27258697 922415126 653727191#0 653727192 -1065952538 -368175444#1 35260369#0 35260369#1"/>
    </vehicle>
    <vehicle id="truck68" type="truck_truck" depart="1684.38" departLane="best" departSpeed="max">
        <route edges="-853618778#6 -853618778#5 -853618778#4 -853618778#3 -853618778#2 -853618778#0 853618779 368175444#1 1225556789 560538898#0"/>
    </vehicle>
    <vehicle id="truck69" type="truck_truck" depart="1709.15" departLane="best" departSpeed="max">
        <route edges="360438708 360438706#2 1392084244#2 712245744#0 653727191#0 653727192 -1065952538 -368175444#1 35260369#0 35260369#1 35260369#2"/>
    </vehicle>
    <vehicle id="truck70" type="truck_truck" depart="1733.92" departLane="best" departSpeed="max">
        <route edges="-853618778#6 -853618778#5 -853618778#4 -853618778#3 -853618778#2 -853618778#0 853618779 368175444#1 1225556789 -1392084250 -653727191#1 -712245744#1 249396544#0 249396544#2 27258666"/>
    </vehicle>
    <vehicle id="truck71" type="truck_truck" depart="1758.69" departLane="best">
        <route edges="35260370 1225556789 -1392084250 -653727191#1 -712245744#1 249396544#0 938252836 961323605#0 961323605#1 -27258652#0"/>
    </vehicle>
    <vehicle id="truck72" type="truck_truck" depart="1783.46" departLane="best" departSpeed="max">
        <route edges="564298145#0 922415126 -712245744#1 -564298126#9 -1030819534 -360438707"/>
    </vehicle>
    <vehicle id="truck73" type="truck_truck" depart="1808.23" departLane="best">
        <route edges="-35260359#1 -35260359#0 -853618778#4 -853618778#3 -853618778#2 -853618778#0 853618779 368175444#1 1225556789 -1392084250 -653727191#1 -712245744#1 249396544#0 249396544#2 249396544#3 27258667"/>
    </vehicle>
    <vehicle id="truck74" type="truck_truck" depart="1833.00" departLane="best" departSpeed="max">
        <route edges="564298145#0 922415126 -712245744#1 -564298126#9 -1392084244#1 -1392084253"/>
    </vehicle>
    <vehicle id="truck75" type="truck_truck" depart="1857.77" departLane="best" departSpeed="max">
        <route edges="-35260361#1 -853618778#5 -853618778#4 -853618778#3 -853618778#2 -853618778#0 853618779 368175444#1 1225556789 -1392084250 -653727191#1 -712245744#1 -564298126#9 -1392084244#1 -902535590"/>
    </vehicle>
    <vehicle id="truck76" type="truck_truck" depart="1882.54" departLane="best" departSpeed="max">
        <route edges="-27258697 922415126 653727191#0 653727192 -1065952538 -368175444#1 35260369#0 35260369#1 35260369#2 338477202#2"/>
    </vehicle>
    <vehicle id="truck77" type="truck_truck" depart="1907.31" departLane="best" departSpeed="max">
        <route edges="-338477202#2 -35260369#2 -35260369#1 29547826 853618778#0 853618778#2 853618778#3 853618778#4 853618778#5 853618778#6"/>
    </vehicle>
    <vehicle id="truck78" type="truck_truck" depart="1932.09" departLane="best" departSpeed="max">
        <route edges="-27258652#1 -961323605#1 -961323605#0 -938252836 -249396544#1 712245744#0 653727191#0 653727192 -1065952538 -368175444#1 -853618779 853618778#0 853618778#2 29547816 -35260360#1 -35260360#0"/>
    </vehicle>
    <vehicle id="truck79" type="truck_truck" depart="1956.86" departLane="best" departSpeed="max">
        <route edges="902535590 1392084244#0 1392084244#2 712245744#0 653727191#0 653727192 -1065952538 -368175444#1 -853618779 853618778#0 35260374"/>
    </vehicle>
    <vehicle id="truck80" type="truck_truck" depart="1981.63" departLane="best">
        <route edges="158467737#1 35260376#1 -338477202#0"/>
    </vehicle>
    <vehicle id="truck81" type="truck_truck" depart="2006.40" departLane="best" departSpeed="max">
        <route edges="-853618778#6 -853618778#5 -853618778#4 -853618778#3 -853618778#2 -853618778#0 853618779 368175444#1 1225556789 -1392084250 -653727191#1 -712245744#1 -564298126#9 -1392084244#1 -1392084253"/>
    </vehicle>
    <vehicle id="truck82" type="truck_truck" depart="2031.17" departLane="best" departSpeed="max">
        <route edges="-27258697 922415126 653727191#0 653727192 -1065952538 -368175444#1 35260379#0 35260379#1"/>
    </vehicle>
    <vehicle id="truck83" type="truck_truck" depart="2055.94" departLane="best" departSpeed="max">
        <route edges="35260368#0 35260368#1 35260361#0 -853618778#5 -853618778#4 -853618778#3 -853618778#2 -853618778#0 853618779 368175444#1 1225556789 -1392084250 -653727191#1 -712245744#1 -564298126#9 -1392084244#1 -902535590"/>
    </vehicle>
    <vehicle id="truck84" type="truck_truck" depart="2080.71" departLane="best" departSpeed="max">
        <route edges="902535590 1392084244#0 1392084244#2 712245744#0 653727191#0 653727192 -1065952538 -368175444#1 -853618779 853618778#0 853618778#2 853618778#3 853618778#4"/>
    </vehicle>
    <vehicle id="truck85" type="truck_truck" depart="2105.48" departLane="best" departSpeed="max">
        <route edges="338477202#0 -35260376#1 -35260376#0 35260997 853618779 368175444#1 1225556789"/>
    </vehicle>
    <vehicle id="truck86" type="truck_truck" depart="2130.25" departLane="best" departSpeed="max">
        <route edges="-35260374 -853618778#0 853618779 368175444#1 1225556789 -1392084250 -653727191#1 -712245744#1 -564298126#9 -1392084244#1 -1392084253"/>
    </vehicle>
    <vehicle id="truck87" type="truck_truck" depart="2155.02" departLane="best">
        <route edges="-27258667 -249396544#3 -249396544#2 -249396544#1 712245744#0 653727191#0 653727192 -1065952538 -368175444#1 -853618779 -853619074 158467737#1 35260376#1"/>
    </vehicle>
    <vehicle id="truck88" type="truck_truck" depart="2179.79" departLane="best">
        <route edges="-29547816 -853618778#2 -853618778#0 853618779 368175444#1 1225556789 -1392084250 -653727191#1 -712245744#1 249396544#0 249396544#2 249396544#3 27258667"/>
    </vehicle>
    <vehicle id="truck89" type="truck_truck" depart="2204.56" departLane="best" departSpeed="max">
        <route edges="-27258697 922415126 653727191#0 653727192 -1065952538 -368175444#1 -853618779 853618778#0 -29547797#1 -29547797#0"/>
    </vehicle>
    <vehicle id="truck90" type="truck_truck" depart="2229.33" departLane="best" departSpeed="max">
        <route edges="27258652#0 -961323605#1 -961323605#0 -938252836 -249396544#1 712245744#0 653727191#0 653727192 -1065952538 -368175444#1 -853618779 853618778#0 853618778#2 853618778#3 853618778#4 853618778#5 -35260361#0 -35260368#1 -35260368#0"/>
    </vehicle>
    <vehicle id="truck91" type="truck_truck" depart="2254.10" departLane="best" departSpeed="max">
        <route edges="29547797#0 29547797#1 -853618778#0 853618779 368175444#1 1225556789 -1392084250 -653727191#1 1054315845#0"/>
    </vehicle>
    <vehicle id="truck92" type="truck_truck" depart="2278.87" departLane="best" departSpeed="max">
        <route edges="1054315844#0 555020953#0 -712245744#1 249396544#0 938252836"/>
    </vehicle>
    <vehicle id="truck93" type="truck_truck" depart="2303.64" departLane="best" departSpeed="max">
        <route edges="-853618778#6 -853618778#5 -853618778#4 -853618778#3 -853618778#2 -853618778#0 -29547826 35260369#1 35260369#2 338477202#2"/>
    </vehicle>
    <vehicle id="truck94" type="truck_truck" depart="2328.41" departLane="best">
        <route edges="35260368#1 35260361#0 -853618778#5 -853618778#4 -853618778#3 -853618778#2 -853618778#0 853618779 368175444#1 1225556789 -1392084250 -653727191#1 -712245744#1 249396544#0 938252836 961323605#0 961323605#1 27258652#1"/>
    </vehicle>
    <vehicle id="truck95" type="truck_truck" depart="2353.18" departLane="best">
        <route edges="158467737#1 35260376#1 -338477202#0"/>
    </vehicle>
    <vehicle id="truck96" type="truck_truck" depart="2377.95" departLane="best">
        <route edges="853618779 368175444#1 1225556789 -1392084250 -653727191#1 -712245744#1 -564298126#9 -1392084244#1 -1392084253"/>
    </vehicle>
    <vehicle id="truck97" type="truck_truck" depart="2402.72" departLane="best" departSpeed="max">
        <route edges="-853618778#6 -853618778#5 -853618778#4 -853618778#3 -853618778#2 -853618778#0 853618779 368175444#1 1225556789 -1392084250 -653727191#1 -712245744#1 -564298126#9 -1030819534 -360438708"/>
    </vehicle>
    <vehicle id="truck98" type="truck_truck" depart="2427.49" departLane="best" departSpeed="max">
        <route edges="1392084253 1392084244#0 1392084244#2 712245744#0 653727191#0 653727192 -1065952538 -368175444#1 -853618779 853618778#0 853618778#2 853618778#3 853618778#4 853618778#5"/>
    </vehicle>
    <vehicle id="truck99" type="truck_truck" depart="2452.26" departLane="best" departSpeed="max">
        <route edges="-35260361#1 -853618778#5 -853618778#4 -853618778#3 -853618778#2 -853618778#0 853618779 368175444#1 1225556789 -1392084250 -653727191#1 1054315845#0"/>
    </vehicle>
    <vehicle id="truck100" type="truck_truck" depart="2477.03" departLane="best">
        <route edges="27258667 -961323605#0 -938252836 -249396544#1 712245744#0 653727191#0 653727192 -1065952538 -368175444#1 -853618779 853618778#0 853618778#2 853618778#3 853618778#4 853618778#5 -35260361#0 -35260368#1 894912572 -1217689481#0"/>
    </vehicle>
    <vehicle id="truck101" type="truck_truck" depart="2501.80" departLane="best" departSpeed="max">
        <route edges="338477202#0 -35260376#1 -35260376#0 35260997 853618778#0 853618778#2 853618778#3 29547818 35260360#1"/>
    </vehicle>
    <vehicle id="truck102" type="truck_truck" depart="2526.57" departLane="best" departSpeed="max">