<?xml version="1.0" encoding="UTF-8"?>

<!-- generated on 2025-08-30 20:07:02.705115 by randomTrips.py v1_24_0+0000-b72eb3fabc8
<configuration>
    <net-file value="osm.net.xml.gz"/>
    <output-trip-file value="osm.passenger.trips.xml"/>
    <route-file value="osm.passenger.rou.xml"/>
    <prefix value="veh"/>
    <trip-attributes value="departLane=&quot;best&quot;"/>
    <fringe-start-attributes value="departSpeed=&quot;max&quot;"/>
    <vehicle-class value="passenger"/>
    <lanes value="True"/>
    <fringe-factor value="5"/>
    <allow-fringe.min-length value="1000.0"/>
    <edge-permission value="passenger"/>
    <via-edge-types value="highway.motorway,highway.motorway_link,highway.trunk_link,highway.primary_link,highway.secondary_link,highway.tertiary_link"/>
    <seed value="44"/>
    <min-distance value="300.0"/>
    <min-distance.fringe value="10.0"/>
    <remove-loops value="True"/>
    <insertion-density value="12.0"/>
</configuration>
-->

<!-- generated on 2025-08-30 20:07:02 by Eclipse SUMO duarouter Version 1.24.0
<duarouterConfiguration xmlns:xsi="http://www.w3.org/2001/XMLSchema-instance" xsi:noNamespaceSchemaLocation="http://sumo.dlr.de/xsd/duarouterConfiguration.xsd">

    <input>
        <net-file value="osm.net.xml.gz"/>
        <route-files value="osm.passenger.trips.xml"/>
    </input>

    <output>
        <output-file value="osm.passenger.rou.xml"/>
        <alternatives-output value="NUL"/>
    </output>

    <processing>
        <remove-loops value="true"/>
    </processing>

    <time>
        <begin value="0.0"/>
        <end value="3600.0"/>
    </time>

    <report>
        <no-warnings value="true"/>
        <ignore-errors value="true"/>
        <no-step-log value="true"/>
    </report>

</duarouterConfiguration>
-->

<routes xmlns:xsi="http://www.w3.org/2001/XMLSchema-instance" xsi:noNamespaceSchemaLocation="http://sumo.dlr.de/xsd/routes_file.xsd">
    <vType id="veh_passenger" vClass="passenger"/>
    <vehicle id="veh0" type="veh_passenger" depart="0.00" departLane="best" departSpeed="max">
        <route edges="-853618778#6 -853618778#5 -853618778#4 -853618778#3 -853618778#2 -853618778#0 853618779 368175444#1 1225556789 -1392084250 -653727191#1 -712245744#1 249396544#0 249396544#2 249396544#3"/>
    </vehicle>
    <vehicle id="veh1" type="veh_passenger" depart="16.51" departLane="best" departSpeed="max">
        <route edges="564298145#0 922415126 653727191#0 653727192 -1065952538 -368175444#1 -853618779 -853619074 158467737#1 35260376#1 -338477202#0"/>
    </vehicle>
    <vehicle id="veh2" type="veh_passenger" depart="33.03" departLane="best">
        <route edges="-35260369#0 368175444#1 1225556789 -1392084250 -653727191#1 -712245744#1 -564298126#9 -1392084244#1"/>
    </vehicle>
    <vehicle id="veh3" type="veh_passenger" depart="49.54" departLane="best" departSpeed="max">
        <route edges="-338477202#2 -35260369#2 35260370 1225556789 -1392084250 -653727191#1 -712245744#1 -564298126#9 -1392084244#1"/>
    </vehicle>
    <vehicle id="veh4" type="veh_passenger" depart="66.05" departLane="best">
        <route edges="-249396544#2 -249396544#1 712245744#0 653727191#0 653727192 -1065952538 -368175444#1 -853618779 853618778#0 853618778#2 853618778#3 853618778#4 853618778#5 35260361#1"/>
    </vehicle>
    <vehicle id="veh5" type="veh_passenger" depart="82.57" departLane="best">
        <route edges="35260360#2 29547797#1 -853618778#0 853618779 368175444#1 1225556789 -1392084250 -653727191#1 -712245744#1 -564298126#9 -1030819534 -360438708"/>
    </vehicle>
    <vehicle id="veh6" type="veh_passenger" depart="99.08" departLane="best" departSpeed="max">
        <route edges="-27258652#1 -961323605#1 -961323605#0 -938252836 -249396544#1 712245744#0 1326404883 564298119#0"/>
    </vehicle>
    <vehicle id="veh7" type="veh_passenger" depart="115.59" departLane="best" departSpeed="max">
        <route edges="29547797#0 29547797#1 -853618778#0 853618779 368175444#1 1225556789 -1392084250 -653727191#1 -712245744#1 249396544#0 938252836 961323605#0 961323605#1 -27258652#0"/>
    </vehicle>
    <vehicle id="veh8" type="veh_passenger" depart="132.11" departLane="best" departSpeed="max">
        <route edges="-27258652#1 -961323605#1 -27258667 -249396544#3 -249396544#2"/>
    </vehicle>
    <vehicle id="veh9" type="veh_passenger" depart="148.62" departLane="best">
        <route edges="1392084244#0 1392084244#2 712245744#0 653727191#0 653727192 -1065952538 -368175444#1 -853618779 853618778#0 853618778#2 853618778#3 853618778#4"/>
    </vehicle>
    <vehicle id="veh10" type="veh_passenger" depart="165.14" departLane="best" departSpeed="max">
        <route edges="1217689481#0 -894912572 35260368#1 35260361#0 -853618778#5 -853618778#4 -853618778#3 -853618778#2 -853618778#0 853618779 368175444#1 1225556789 -1392084250"/>
    </vehicle>
    <vehicle id="veh11" type="veh_passenger" depart="181.65" departLane="best" departSpeed="max">
        <route edges="-35260374 -853618778#0 853618779 368175444#1 1225556789 -1392084250 -653727191#1 -712245744#1 -564298126#9 -1392084244#1 -1392084253"/>
    </vehicle>
    <vehicle id="veh12" type="veh_passenger" depart="198.16" departLane="best">
        <route edges="35260359#0 35260359#1 35260360#0 35260360#1 -29547816 -853618778#2 -853618778#0 853618779 368175444#1 1225556789 560538898#0"/>
    </vehicle>
    <vehicle id="veh13" type="veh_passenger" depart="214.68" departLane="best">
        <route edges="-961323605#1 -961323605#0 -938252836 -249396544#1 712245744#0 653727191#0 653727192"/>
    </vehicle>
    <vehicle id="veh14" type="veh_passenger" depart="231.19" departLane="best" departSpeed="max">
        <route edges="35260368#0 35260368#1 35260361#0 -853618778#5 -853618778#4 -853618778#3 -853618778#2 35260374"/>
    </vehicle>
    <vehicle id="veh15" type="veh_passenger" depart="247.70" departLane="best" departSpeed="max">
        <route edges="338477202#0 -35260376#1 -35260376#0 35260997 853618779 368175444#1 1225556789 -1392084250 -653727191#1 -712245744#1 -564298126#9 -1030819534 -360438708"/>
    </vehicle>
    <vehicle id="veh16" type="veh_passenger" depart="264.22" departLane="best">
        <route edges="555020953#0 653727191#0 653727192 -1065952538 -368175444#1 -853618779 -853619074 158467737#1 35260376#1 338477202#1"/>
    </vehicle>
    <vehicle id="veh17" type="veh_passenger" depart="280.73" departLane="best">
        <route edges="-35260369#2 35260370 1225556789 -1392084250 -653727191#1 1054315845#0"/>
    </vehicle>
    <vehicle id="veh18" type="veh_passenger" depart="297.24" departLane="best" departSpeed="max">
        <route edges="360438707 360438706#2 1392084244#2 712245744#0 653727191#0 653727192 -1065952538 -368175444#1 -853618779 853618778#0 853618778#2 853618778#3 853618778#4 853618778#5 35260361#1"/>
    </vehicle>
    <vehicle id="veh19" type="veh_passenger" depart="313.76" departLane="best">
        <route edges="1392084244#2 712245744#0 653727191#0 653727192 560538898#0"/>
    </vehicle>
    <vehicle id="veh20" type="veh_passenger" depart="330.27" departLane="best" departSpeed="max">
        <route edges="-338477202#2 -35260369#2 -35260369#1 29547826 853618778#0 853618778#2 853618778#3 853618778#4 853618778#5 -35260361#0 -35260368#1 -35260368#0"/>
    </vehicle>
    <vehicle id="veh21" type="veh_passenger" depart="346.78" departLane="best">
        <route edges="29547826 853618779 368175444#1 1225556789 -1392084250 -653727191#1 -712245744#1 249396544#0 249396544#2 249396544#3"/>
    </vehicle>
    <vehicle id="veh22" type="veh_passenger" depart="363.30" departLane="best" departSpeed="max">
        <route edges="-35260361#1 -853618778#5 -853618778#4 -853618778#3 -853618778#2 -853618778#0 853618779 368175444#1 1225556789 -1392084250 -653727191#1 -712245744#1 249396544#0 938252836 961323605#0 961323605#1 -27258652#0"/>
    </vehicle>
    <vehicle id="veh23" type="veh_passenger" depart="379.81" departLane="best" departSpeed="max">
        <route edges="-560538898#1 -1392084250 564298119#0"/>
    </vehicle>
    <vehicle id="veh24" type="veh_passenger" depart="396.33" departLane="best">
        <route edges="27258667 -961323605#0 -938252836 -249396544#1 -564298126#9 -1392084244#1 -1392084253"/>
    </vehicle>
    <vehicle id="veh25" type="veh_passenger" depart="412.84" departLane="best" departSpeed="max">
        <route edges="29547797#0 29547797#1 -853618778#0 853618779 368175444#1 1225556789 -1392084250 -653727191#1 -712245744#1 249396544#0 938252836 -27258666"/>
    </vehicle>
    <vehicle id="veh26" type="veh_passenger" depart="429.35" departLane="best">
        <route edges="-35260359#1 -35260359#0 -853618778#4 -853618778#3 -853618778#2 -853618778#0 -29547826 35260369#1 35260369#2 338477202#2"/>
    </vehicle>
    <vehicle id="veh27" type="veh_passenger" depart="445.87" departLane="best" departSpeed="max">
        <route edges="564298145#0 922415126 653727191#0 653727192 -1065952538 -368175444#1 -853618779 853618778#0 853618778#2 29547816"/>
    </vehicle>
    <vehicle id="veh28" type="veh_passenger" depart="462.38" departLane="best" departSpeed="max">
        <route edges="564298145#0 922415126 653727191#0 653727192 560538898#0"/>
    </vehicle>
    <vehicle id="veh29" type="veh_passenger" depart="478.89" departLane="best">
        <route edges="-35260379#1 -35260379#0 -853618779 853618778#0 853618778#2 853618778#3 853618778#4 853618778#5 853618778#6"/>
    </vehicle>
    <vehicle id="veh30" type="veh_passenger" depart="495.41" departLane="best">
        <route edges="-35260375 35260997 853618779 368175444#1 1225556789 -1392084250 -653727191#1 -712245744#1 -564298126#9 -1392084244#1 -1392084253"/>
    </vehicle>
    <vehicle id="veh31" type="veh_passenger" depart="511.92" departLane="best">
        <route edges="1392084244#0 1392084244#2 712245744#0 1326404883 564298119#0"/>
    </vehicle>
    <vehicle id="veh32" type="veh_passenger" depart="528.43" departLane="best" departSpeed="max">
        <route edges="27258652#0 27258652#1"/>
    </vehicle>
    <vehicle id="veh33" type="veh_passenger" depart="544.95" departLane="best" departSpeed="max">
        <route edges="1217689481#0 -894912572 35260368#1 35260361#0 -853618778#5 -853618778#4 -853618778#3 -853618778#2 -853618778#0 853618779 368175444#1 1225556789 -1392084250 -653727191#1 -712245744#1 -564298126#9 -1030819534 -360438706#0"/>
    </vehicle>
    <vehicle id="veh34" type="veh_passenger" depart="561.46" departLane="best" departSpeed="max">
        <route edges="-560538898#1 -1065952538 -368175444#1 -853618779 853618778#0 853618778#2 853618778#3 853618778#4 853618778#5 -35260361#0 -35260368#1 894912572"/>
    </vehicle>
    <vehicle id="veh35" type="veh_passenger" depart="577.97" departLane="best" departSpeed="max">
        <route edges="1392084253 1392084244#0 1392084244#2 712245744#0 653727191#0 653727192 -1065952538 -368175444#1 -853618779 853618778#0 853618778#2 853618778#3 853618778#4"/>
    </vehicle>
    <vehicle id="veh36" type="veh_passenger" depart="594.49" departLane="best" departSpeed="max">
        <route edges="-27258652#1 -961323605#1 -961323605#0 -938252836 -249396544#1 712245744#0 653727191#0 653727192 -1065952538 -368175444#1 35260369#0 35260369#1 35260369#2"/>
    </vehicle>
    <vehicle id="veh37" type="veh_passenger" depart="611.00" departLane="best" departSpeed="max">
        <route edges="-27258652#1 -961323605#1 -961323605#0 -938252836 -249396544#1 712245744#0 1054315845#0"/>
    </vehicle>
    <vehicle id="veh38" type="veh_passenger" depart="627.51" departLane="best" departSpeed="max">
        <route edges="338477202#0 -35260376#1 -35260376#0 35260997 853618779 368175444#1 1225556789 -1392084250"/>
    </vehicle>
    <vehicle id="veh39" type="veh_passenger" depart="644.03" departLane="best">
        <route edges="-27258666 -249396544#2 -249396544#1 712245744#0 653727191#0"/>
    </vehicle>
    <vehicle id="veh40" type="veh_passenger" depart="660.54" departLane="best" departSpeed="max">
        <route edges="360438706#0 360438706#2 1392084244#2 712245744#0 653727191#0 653727192 -1065952538 -368175444#1 35260379#0 273622079#0"/>
    </vehicle>
    <vehicle id="veh41" type="veh_passenger" depart="677.06" departLane="best" departSpeed="max">
        <route edges="1392084253 1392084244#0 1392084244#2 712245744#0 653727191#0 653727192 560538898#0"/>
    </vehicle>
    <vehicle id="veh42" type="veh_passenger" depart="693.57" departLane="best">
        <route edges="-35260379#0 368175444#1 1225556789 -1392084250 -653727191#1 -712245744#1 -564298126#9 -1392084244#1 -902535590"/>
    </vehicle>
    <vehicle id="veh43" type="veh_passenger" depart="710.08" departLane="best" departSpeed="max">
        <route edges="-35260374 853618778#2 853618778#3 853618778#4 853618778#5 -35260361#0 -35260368#1 -35260368#0"/>
    </vehicle>
    <vehicle id="veh44" type="veh_passenger" depart="726.60" departLane="best" departSpeed="max">
        <route edges="27258652#0 -961323605#1 -961323605#0 -938252836 -249396544#1 712245744#0 653727191#0 653727192 -1065952538 -368175444#1 -853618779 -853619074 158467737#1"/>
    </vehicle>
    <vehicle id="veh45" type="veh_passenger" depart="743.11" departLane="best" departSpeed="max">
        <route edges="-560538898#1 -1392084250 -653727191#1 -712245744#1 -564298126#9 -1030819534 -360438708"/>
    </vehicle>
    <vehicle id="veh46" type="veh_passenger" depart="759.62" departLane="best" departSpeed="max">
        <route edges="-27258652#1 -961323605#1 -961323605#0 -938252836 -249396544#1 712245744#0 653727191#0 653727192"/>
    </vehicle>
    <vehicle id="veh47" type="veh_passenger" depart="776.14" departLane="best" departSpeed="max">
        <route edges="360438708 360438706#2 1392084244#2 712245744#0 653727191#0 653727192 -1065952538 -368175444#1 -853618779 853618778#0 853618778#2 853618778#3"/>
    </vehicle>
    <vehicle id="veh48" type="veh_passenger" depart="792.65" departLane="best" departSpeed="max">
        <route edges="902535590 1392084244#0 1392084244#2 712245744#0 653727191#0 653727192 -1065952538 -368175444#1 -853618779 -853619074 158467737#1 35260376#1"/>
    </vehicle>
    <vehicle id="veh49" type="veh_passenger" depart="809.16" departLane="best">
        <route edges="35260360#1 -29547816 -853618778#2 -853618778#0 853618779 368175444#1 1225556789 -1392084250 -653727191#1 1054315845#0"/>
    </vehicle>
    <vehicle id="veh50" type="veh_passenger" depart="825.68" departLane="best" departSpeed="max">
        <route edges="-560538898#1 -1392084250 -653727191#1 -712245744#1 249396544#0 249396544#2"/>
    </vehicle>
    <vehicle id="veh51" type="veh_passenger" depart="842.19" departLane="best" departSpeed="max">
        <route edges="-35260361#1 -853618778#5 -853618778#4 -853618778#3 -853618778#2 -853618778#0 853618779 368175444#1 1225556789 -1392084250 -653727191#1 -712245744#1 249396544#0 938252836 961323605#0 -27258667"/>
    </vehicle>
    <vehicle id="veh52" type="veh_passenger" depart="858.70" departLane="best" departSpeed="max">
        <route edges="-560538898#1 -1392084250 -653727191#1 -712245744#1 249396544#0 938252836 961323605#0 -27258667"/>
    </vehicle>
    <vehicle id="veh53" type="veh_passenger" depart="875.22" departLane="best">
        <route edges="712245744#0 653727191#0 653727192 -1065952538 -368175444#1 -853618779 -853619074 158467737#1 35260376#1 338477202#1"/>
    </vehicle>
    <vehicle id="veh54" type="veh_passenger" depart="891.73" departLane="best" departSpeed="max">
        <route edges="-560538898#1 -1065952538 -368175444#1 35260379#0 273622079#0"/>
    </vehicle>
    <vehicle id="veh55" type="veh_passenger" depart="908.25" departLane="best" departSpeed="max">
        <route edges="360438708 360438706#2 1392084244#2 712245744#0 653727191#0 653727192 -1065952538 -368175444#1 -853618779 853618778#0 853618778#2 853618778#3 853618778#4 853618778#5 -35260361#0 -35260368#1 894912572 -1217689481#0"/>
    </vehicle>
    <vehicle id="veh56" type="veh_passenger" depart="924.76" departLane="best" departSpeed="max">
        <route edges="360438707 360438706#2 1392084244#2 249396544#0 938252836 961323605#0 961323605#1 -27258652#0"/>
    </vehicle>
    <vehicle id="veh57" type="veh_passenger" depart="941.27" departLane="best" departSpeed="max">
        <route edges="-1217689481#1 -894912572 35260368#1 35260361#0 -853618778#5 -853618778#4 -853618778#3 -853618778#2 -853618778#0 853618779 368175444#1 1225556789 -1392084250 -653727191#1 -712245744#1 -564298126#9 -1392084244#1 -1392084253"/>
    </vehicle>
    <vehicle id="veh58" type="veh_passenger" depart="957.79" departLane="best" departSpeed="max">
        <route edges="1392084253 1392084244#0 1392084244#2 712245744#0 1326404883 564298119#0"/>
    </vehicle>
    <vehicle id="veh59" type="veh_passenger" depart="974.30" departLane="best">
        <route edges="712245744#0 653727191#0 653727192 -1065952538 -368175444#1 -853618779 853618778#0 853618778#2 29547816"/>
    </vehicle>
    <vehicle id="veh60" type="veh_passenger" depart="990.81" departLane="best">
        <route edges="-938252836 -249396544#1 712245744#0 653727191#0 653727192 -1065952538 -368175444#1 -853618779 853618778#0 853618778#2 853618778#3 853618778#4"/>
    </vehicle>
    <vehicle id="veh61" type="veh_passenger" depart="1007.33" departLane="best" departSpeed="max">
        <route edges="564298145#0 922415126 653727191#0 653727192 560538898#0"/>
    </vehicle>
    <vehicle id="veh62" type="veh_passenger" depart="1023.84" departLane="best" departSpeed="max">
        <route edges="-853618778#6 -853618778#5 -853618778#4 -853618778#3 -853618778#2 -853618778#0 853618779 368175444#1 1225556789 560538898#0"/>
    </vehicle>
    <vehicle id="veh63" type="veh_passenger" depart="1040.35" departLane="best">
        <route edges="-35260359#1 -35260359#0 -853618778#4 -853618778#3 -853618778#2 -853618778#0 853618779 368175444#1 1225556789 -1392084250 -653727191#1 1054315845#0"/>
    </vehicle>
    <vehicle id="veh64" type="veh_passenger" depart="1056.87" departLane="best" departSpeed="max">
        <route edges="564298145#0 922415126 1054315845#0"/>
    </vehicle>
    <vehicle id="veh65" type="veh_passenger" depart="1073.38" departLane="best" departSpeed="max">
        <route edges="360438707 360438706#2 1392084244#2 712245744#0 653727191#0 653727192 -1065952538 -368175444#1 -853618779 853618778#0 853618778#2 853618778#3 853618778#4 853618778#5 35260361#1"/>
    </vehicle>
    <vehicle id="veh66" type="veh_passenger" depart="1089.89" departLane="best">
        <route edges="-853618778#0 853618779 368175444#1 1225556789 -1392084250 -653727191#1 1054315845#0"/>
    </vehicle>
    <vehicle id="veh67" type="veh_passenger" depart="1106.41" departLane="best" departSpeed="max">
        <route edges="360438708 360438706#2 1392084244#2 712245744#0 653727191#0 653727192 -1065952538 -368175444#1 35260379#0 273622079#0"/>
    </vehicle>
    <vehicle id="veh68" type="veh_passenger" depart="1122.92" departLane="best">
        <route edges="-35260361#0 35260368#2 -35260359#0 -853618778#4 -853618778#3 -853618778#2 -853618778#0 853618779 368175444#1 1225556789 -1392084250 564298119#0"/>
    </vehicle>
    <vehicle id="veh69" type="veh_passenger" depart="1139.43" departLane="best" departSpeed="max">
        <route edges="1217689481#0 -894912572 35260368#1 35260361#0 -853618778#5 -853618778#4 -853618778#3 -853618778#2 -853618778#0 -29547826 35260369#1 35260369#2 338477202#2"/>
    </vehicle>
    <vehicle id="veh70" type="veh_passenger" depart="1155.95" departLane="best">
        <route edges="-35260359#0 -853618778#4 -853618778#3 -853618778#2 -853618778#0 853618779 368175444#1 1225556789 -1392084250"/>
    </vehicle>
    <vehicle id="veh71" type="veh_passenger" depart="1172.46" departLane="best">
        <route edges="-35260369#0 368175444#1 1225556789 -1392084250 -653727191#1 -712245744#1 249396544#0 249396544#2 249396544#3 27258667 -961323605#0"/>
    </vehicle>
    <vehicle id="veh72" type="veh_passenger" depart="1188.98" departLane="best">
        <route edges="1392084244#0 1392084244#2 712245744#0 653727191#0 653727192 -1065952538 -368175444#1 35260379#0"/>
    </vehicle>
    <vehicle id="veh73" type="veh_passenger" depart="1205.49" departLane="best">
        <route edges="-853618778#4 -853618778#3 -853618778#2 -853618778#0 853618779 368175444#1 1225556789 -1392084250 -653727191#1 1054315845#0"/>
    </vehicle>
    <vehicle id="veh74" type="veh_passenger" depart="1222.00" departLane="best" departSpeed="max">
        <route edges="-560538898#1 -1065952538 -368175444#1 -853618779 -853619074 158467737#1 35260376#1 -338477202#0"/>
    </vehicle>
    <vehicle id="veh75" type="veh_passenger" depart="1238.52" departLane="best" departSpeed="max">
        <route edges="564298145#0 922415126 653727191#0 653727192 -1065952538 -368175444#1"/>
    </vehicle>
    <vehicle id="veh76" type="veh_passenger" depart="1255.03" departLane="best" departSpeed="max">
        <route edges="27258652#0 -961323605#1 -961323605#0 -938252836 -249396544#1 -564298126#9 -1030819534 -360438706#0"/>
    </vehicle>
    <vehicle id="veh77" type="veh_passenger" depart="1271.54" departLane="best" departSpeed="max">
        <route edges="338477202#0 -35260376#1 -35260376#0 35260997 853618779 368175444#1 1225556789 -1392084250 -653727191#1 -712245744#1 -564298126#9 -1030819534"/>
    </vehicle>
    <vehicle id="veh78" type="veh_passenger" depart="1288.06" departLane="best" departSpeed="max">
        <route edges="-560538898#1 -1065952538 -368175444#1 -853618779 853618778#0 853618778#2 853618778#3 29547818 35260360#1"/>
    </vehicle>
    <vehicle id="veh79" type="veh_passenger" depart="1304.57" departLane="best" departSpeed="max">
        <route edges="360438707 360438706#2 1392084244#2 712245744#0 653727191#0 653727192 -1065952538 -368175444#1 -853618779 853618778#0 853618778#2 853618778#3 853618778#4 853618778#5 -35260361#0 -35260368#1 894912572 1217689481#1"/>
    </vehicle>
    <vehicle id="veh80" type="veh_passenger" depart="1321.08" departLane="best">
        <route edges="-853618778#4 -853618778#3 -853618778#2 -853618778#0 853618779 368175444#1 1225556789 -1392084250 -653727191#1 -712245744#1 -564298126#9 -1392084244#1 -1392084253"/>
    </vehicle>
    <vehicle id="veh81" type="veh_passenger" depart="1337.60" departLane="best" departSpeed="max">
        <route edges="-35260374 -853618778#0 853618779 368175444#1 1225556789 -1392084250 564298119#0"/>
    </vehicle>
    <vehicle id="veh82" type="veh_passenger" depart="1354.11" departLane="best" departSpeed="max">
        <route edges="1392084253 1392084244#0 1392084244#2 712245744#0 653727191#0"/>
    </vehicle>
    <vehicle id="veh83" type="veh_passenger" depart="1370.62" departLane="best" departSpeed="max">
        <route edges="1392084253 1392084244#0 1392084244#2 712245744#0 653727191#0 653727192 560538898#0"/>
    </vehicle>
    <vehicle id="veh84" type="veh_passenger" depart="1387.14" departLane="best">
        <route edges="-1065952538 -368175444#1 -853618779 853618778#0 853618778#2 853618778#3 853618778#4"/>
    </vehicle>
    <vehicle id="veh85" type="veh_passenger" depart="1403.65" departLane="best" departSpeed="max">
        <route edges="-560538898#1 -1065952538 -368175444#1 -853618779 853618778#0 853618778#2 853618778#3 853618778#4 853618778#5 -35260361#0 -35260368#1 -35260368#0"/>
    </vehicle>
    <vehicle id="veh86" type="veh_passenger" depart="1420.17" departLane="best">
        <route edges="1392084244#0 1392084244#2 712245744#0 653727191#0 653727192 -1065952538 -368175444#1 -853618779 853618778#0 853618778#2 853618778#3 853618778#4 853618778#5 -35260361#0 -35260368#1 894912572 -1217689481#0"/>
    </vehicle>
    <vehicle id="veh87" type="veh_passenger" depart="1436.68" departLane="best">
        <route edges="29547816 35260360#2 29547797#1 -853618778#0 853618779 368175444#1 1225556789 -1392084250 -653727191#1 -712245744#1 249396544#0 938252836 961323605#0 961323605#1 -27258652#0"/>
    </vehicle>
    <vehicle id="veh88" type="veh_passenger" depart="1453.19" departLane="best" departSpeed="max">
        <route edges="360438707 360438706#2 1392084244#2 712245744#0 653727191#0 653727192 560538898#0"/>
    </vehicle>
    <vehicle id="veh89" type="veh_passenger" depart="1469.71" departLane="best">
        <route edges="-961323605#1 -961323605#0 -938252836 -249396544#1 712245744#0 653727191#0 653727192 -1065952538 -368175444#1 -853618779 853618778#0 853618778#2 853618778#3 853618778#4 853618778#5 35260361#1"/>
    </vehicle>
    <vehicle id="veh90" type="veh_passenger" depart="1486.22" departLane="best">
        <route edges="-853618778#4 -853618778#3 -853618778#2 -853618778#0 853618779 368175444#1 1225556789 -1392084250 -653727191#1 -712245744#1"/>
    </vehicle>
    <vehicle id="veh91" type="veh_passenger" depart="1502.73" departLane="best" departSpeed="max">
        <route edges="27258652#0 -961323605#1 -961323605#0 -938252836 -249396544#1 712245744#0 653727191#0 653727192 -1065952538 -368175444#1 -853618779 853618778#0 853618778#2 29547816 35260360#2"/>
    </vehicle>
    <vehicle id="veh92" type="veh_passenger" depart="1519.25" departLane="best" departSpeed="max">
        <route edges="1392084253 1392084244#0 1392084244#2 249396544#0 938252836 961323605#0 961323605#1 -27258652#0"/>
    </vehicle>
    <vehicle id="veh93" type="veh_passenger" depart="1535.76" departLane="best" departSpeed="max">
        <route edges="-35260361#1 -853618778#5 -853618778#4 -853618778#3 -853618778#2 -853618778#0 -29547826 35260369#1 35260369#2"/>
    </vehicle>
    <vehicle id="veh94" type="veh_passenger" depart="1552.27" departLane="best">
        <route edges="-35260379#0 -853618779 853618778#0 853618778#2 853618778#3 853618778#4 853618778#5 -35260361#0 -35260368#1 -35260368#0"/>
    </vehicle>
    <vehicle id="veh95" type="veh_passenger" depart="1568.79" departLane="best" departSpeed="max">
        <route edges="360438708 360438706#2 1392084244#2 249396544#0 249396544#2"/>
    </vehicle>
    <vehicle id="veh96" type="veh_passenger" depart="1585.30" departLane="best">
        <route edges="-27258666 -249396544#2 -249396544#1 712245744#0 1326404883"/>
    </vehicle>
    <vehicle id="veh97" type="veh_passenger" depart="1601.81" departLane="best">
        <route edges="-35260360#2 -29547816 -853618778#2 -853618778#0 853618779 368175444#1 1225556789 -1392084250 -653727191#1 -712245744#1 249396544#0 249396544#2 249396544#3 27258667"/>
    </vehicle>
    <vehicle id="veh98" type="veh_passenger" depart="1618.33" departLane="best" departSpeed="max">
        <route edges="-560538898#1 -1392084250"/>
    </vehicle>
    <vehicle id="veh99" type="veh_passenger" depart="1634.84" departLane="best" departSpeed="max">
        <route edges="-338477202#2 -35260369#2 35260370 1225556789 -1392084250"/>
    </vehicle>
    <vehicle id="veh100" type="veh_passenger" depart="1651.35" departLane="best" departSpeed="max">
        <route edges="360438706#0 360438706#2 1392084244#2 712245744#0 653727191#0 653727192 -1065952538 -368175444#1 35260369#0 35260369#1 35260369#2"/>
    </vehicle>
    <vehicle id="veh101" type="veh_passenger" depart="1667.87" departLane="best" departSpeed="max">
        <route edges="338477202#0 -35260376#1 -35260376#0 35260997 853618778#0 853618778#2 853618778#3 853618778#4 853618778#5 853618778#6"/>
    </vehicle>
    <vehicle id="veh102" type="veh_passenger" depart="1684.38" departLane="best" departSpeed="max">
        <route edges="-560538898#1 -1065952538 -368175444#1 -853618779 853618778#0 35260374"/>
    </vehicle>
    <vehicle id="veh103" type="veh_passenger" depart="1700.90" departLane="best" departSpeed="max">
        <route edges="-560538898#1 -1065952538 -368175444#1 35260379#0 35260379#1 273622079#1"/>
    </vehicle>
    <vehicle id="veh104" type="veh_passenger" depart="1717.41" departLane="best">
        <route edges="-1392084250 -653727191#1 1054315845#0"/>
    </vehicle>
    <vehicle id="veh105" type="veh_passenger" depart="1733.92" departLane="best" departSpeed="max">
        <route edges="-1217689481#1 -894912572 35260368#1 35260361#0 -853618778#5 -853618778#4 -853618778#3 -853618778#2 -853618778#0 853618779 368175444#1 1225556789 -1392084250 -653727191#1 -712245744#1 -564298126#9 -1392084244#1 -1392084253"/>
    </vehicle>
    <vehicle id="veh106" type="veh_passenger" depart="1750.44" departLane="best">
        <route edges="922415126 -712245744#1 249396544#0 938252836 961323605#0 961323605#1 27258652#1"/>
    </vehicle>
    <vehicle id="veh107" type="veh_passenger" depart="1766.95" departLane="best">
        <route edges="360438706#2 1392084244#2 712245744#0 653727191#0 653727192 -1065952538 -368175444#1 -853618779 853618778#0 853618778#2 853618778#3 853618778#4 35260359#0 -35260368#2"/>
    </vehicle>
    <vehicle id="veh108" type="veh_passenger" depart="1783.46" departLane="best" departSpeed="max">
        <route edges="564298145#0 922415126 653727191#0 653727192 -1065952538 -368175444#1 35260369#0"/>
    </vehicle>
    <vehicle id="veh109" type="veh_passenger" depart="1799.98" departLane="best" departSpeed="max">
        <route edges="564298145#0 922415126 653727191#0 653727192 -1065952538 -368175444#1 -853618779 853618778#0 853618778#2 853618778#3 853618778#4 853618778#5 -35260361#0 -35260368#1 894912572 1217689481#1"/>
    </vehicle>
    <vehicle id="veh110" type="veh_passenger" depart="1816.49" departLane="best">
        <route edges="-29547818 -853618778#3 -853618778#2 -853618778#0 853618779 368175444#1 1225556789 -1392084250"/>
    </vehicle>
    <vehicle id="veh111" type="veh_passenger" depart="1833.00" departLane="best" departSpeed="max">
        <route edges="-560538898#1 -1392084250 -653727191#1 -712245744#1"/>
    </vehicle>
    <vehicle id="veh112" type="veh_passenger" depart="1849.52" departLane="best" departSpeed="max">
        <route edges="1392084253 1392084244#0 1392084244#2 712245744#0 653727191#0 653727192 -1065952538 -368175444#1 -853618779 -853619074"/>
    </vehicle>