<?xml version='1.0' encoding='utf-8'?>
<routes xmlns:xsi="http://www.w3.org/2001/XMLSchema-instance" xsi:noNamespaceSchemaLocation="http://sumo.dlr.de/xsd/routes_file.xsd"><vType id="bus_bus" vClass="bus" guiShape="bus" color="255,255,0" maxSpeed="27.78" length="12.0" />
    <trip id="bus_693907_0" depart="213.78" from="1392084244#0" to="-564298126#9" via="653727191#0" departLane="best" type="bus_bus" departSpeed="max" /><trip id="bus_693907_1" depart="1282.70" from="-1392084250" to="653727192" via="712245744#0" departLane="best" type="bus_bus" departSpeed="max" /><trip id="bus_693907_2" depart="1496.48" from="1392084244#0" to="-564298126#9" via="653727191#0" departLane="best" type="bus_bus" departSpeed="max" /><trip id="bus_693907_3" depart="3206.75" from="1392084244#0" to="-564298126#9" via="653727191#0" departLane="best" type="bus_bus" departSpeed="max" /><trip id="bus_693907_4" depart="1924.05" from="1392084244#0" to="-564298126#9" via="-653727191#1" departLane="best" type="bus_bus" departSpeed="max" /><trip id="bus_693907_5" depart="855.13" from="1392084244#0" to="-564298126#9" via="653727191#0" departLane="best" type="bus_bus" departSpeed="max" /><trip id="bus_693907_6" depart="2565.40" from="1392084244#0" to="1054315845#0" via="-653727191#1" departLane="best" type="bus_bus" departSpeed="max" /><trip id="bus_693907_7" depart="2992.97" from="1392084244#0" to="-564298126#9" via="653727191#0" departLane="best" type="bus_bus" departSpeed="max" /><trip id="bus_693907_8" depart="641.35" from="1392084244#0" to="1054315845#0" via="-653727191#1" departLane="best" type="bus_bus" departSpeed="max" /><trip id="bus_693907_9" depart="1710.27" from="1392084244#0" to="-564298126#9" via="653727191#0" departLane="best" type="bus_bus" departSpeed="max" /><trip id="bus_693907_10" depart="2137.83" from="-1392084250" to="653727192" via="712245744#0" departLane="best" type="bus_bus" departSpeed="max" /><trip id="bus_693907_11" depart="2351.62" from="-1392084250" to="653727192" via="712245744#0" departLane="best" type="bus_bus" departSpeed="max" /><trip id="bus_693907_12" depart="0.00" from="1392084244#0" to="-564298126#9" via="653727191#0" departLane="best" type="bus_bus" departSpeed="max" /><trip id="bus_693907_enh_13" depart="4.32" from="1054315844#0" to="653727191#0" type="bus_bus" color="255,165,0" departLane="best" departSpeed="max" departPos="random" speedFactor="0.85" /><trip id="bus_693907_enh_14" depart="8.46" from="653727191#0" to="-564298126#9" type="bus_bus" color="255,255,255" departLane="best" departSpeed="max" departPos="random" speedFactor="1.0" /><trip id="bus_693907_enh_15" depart="9.11" from="-1392084250" to="-564298126#9" type="bus_bus" color="0,0,255" departLane="best" departSpeed="max" departPos="random" speedFactor="1.07" /><trip id="bus_693907_enh_16" depart="160.02" from="1392084244#0" to="1326404883" type="bus_bus" color="255,255,0" departLane="best" departSpeed="max" departPos="random" speedFactor="1.02" /><trip id="bus_693907_enh_17" depart="233.37" from="1392084244#0" to="712245744#0" type="bus_bus" color="0,128,0" departLane="best" departSpeed="max" departPos="random" speedFactor="1.14" /><trip id="bus_693907_enh_18" depart="245.92" from="-653727191#1" to="-564298126#9" type="bus_bus" color="255,255,255" departLane="best" departSpeed="max" departPos="random" speedFactor="0.98" /><trip id="bus_693907_enh_19" depart="335.42" from="1392084244#0" to="712245744#0" type="bus_bus" color="255,165,0" departLane="best" departSpeed="max" departPos="random" speedFactor="0.88" /><trip id="bus_693907_enh_20" depart="459.19" from="564298145" to="-564298126#9" type="bus_bus" color="128,128,128" departLane="best" departSpeed="max" departPos="random" speedFactor="0.92" /><trip id="bus_693907_enh_21" depart="504.43" from="-1392084250" to="-712245744#1" type="bus_bus" color="255,165,0" departLane="best" departSpeed="max" departPos="random" speedFactor="1.11" /><trip id="bus_693907_enh_22" depart="508.25" from="564298145" to="-564298126#9" type="bus_bus" color="0,128,0" departLane="best" departSpeed="max" departPos="random" speedFactor="1.11" /><trip id="bus_693907_enh_23" depart="660.27" from="-1392084250" to="1054315845#0" type="bus_bus" color="255,255,255" departLane="best" departSpeed="max" departPos="random" speedFactor="1.06" /><trip id="bus_693907_enh_24" depart="665.95" from="1054315844#0" to="653727192" type="bus_bus" color="255,255,0" departLane="best" departSpeed="max" departPos="random" speedFactor="1.01" /><trip id="bus_693907_enh_25" depart="760.10" from="-653727191#1" to="1054315845#0" type="bus_bus" color="255,165,0" departLane="best" departSpeed="max" departPos="random" speedFactor="1.04" /><trip id="bus_693907_enh_26" depart="833.73" from="-1392084250" to="1054315845#0" type="bus_bus" color="255,0,0" departLane="best" departSpeed="max" departPos="random" speedFactor="1.09" /><trip id="bus_693907_enh_27" depart="909.74" from="1392084244#0" to="653727191#0" type="bus_bus" color="0,128,0" departLane="best" departSpeed="max" departPos="random" speedFactor="1.03" /><trip id="bus_693907_enh_28" depart="1012.36" from="-1392084250" to="-564298126#9" type="bus_bus" color="255,255,0" departLane="best" departSpeed="max" departPos="random" speedFactor="1.0" /><trip id="bus_693907_enh_29" depart="1021.77" from="1054315844#0" to="653727192" type="bus_bus" color="255,0,0" departLane="best" departSpeed="max" departPos="random" speedFactor="1.07" /><trip id="bus_693907_enh_30" depart="1124.97" from="1392084244#0" to="1326404883" type="bus_bus" color="255,165,0" departLane="best" departSpeed="max" departPos="random" speedFactor="0.91" /><trip id="bus_693907_enh_31" depart="1177.48" from="564298145" to="-564298126#9" type="bus_bus" color="255,0,0" departLane="best" departSpeed="max" departPos="random" speedFactor="0.93" /><trip id="bus_693907_enh_32" depart="1262.52" from="564298145" to="-564298126#9" type="bus_bus" color="255,0,0" departLane="best" departSpeed="max" departPos="random" speedFactor="1.15" /><trip id="bus_693907_enh_33" depart="1333.79" from="-1392084250" to="1054315845#0" type="bus_bus" color="0,128,0" departLane="best" departSpeed="max" departPos="random" speedFactor="0.92" /><trip id="bus_693907_enh_34" depart="1362.40" from="-1392084250" to="-564298126#9" type="bus_bus" color="0,0,255" departLane="best" departSpeed="max" departPos="random" speedFactor="0.99" /><trip id="bus_693907_enh_35" depart="1488.14" from="1392084244#0" to="653727192" type="bus_bus" color="255,0,0" departLane="best" departSpeed="max" departPos="random" speedFactor="0.96" /><trip id="bus_693907_enh_36" depart="1522.60" from="-1392084250" to="1054315845#0" type="bus_bus" color="255,255,0" departLane="best" departSpeed="max" departPos="random" speedFactor="1.05" /><trip id="bus_693907_enh_37" depart="1571.35" from="564298145" to="1054315845#0" type="bus_bus" color="128,128,128" departLane="best" departSpeed="max" departPos="random" speedFactor="0.93" /><trip id="bus_693907_enh_38" depart="1679.95" from="-1392084250" to="-564298126#9" type="bus_bus" color="255,255,0" departLane="best" departSpeed="max" departPos="random" speedFactor="1.02" /><trip id="bus_693907_enh_39" depart="1766.12" from="1392084244#0" to="653727192" type="bus_bus" color="255,255,0" departLane="best" departSpeed="max" departPos="random" speedFactor="0.9" /><trip id="bus_693907_enh_40" depart="1794.39" from="1392084244#0" to="653727192" type="bus_bus" color="255,165,0" departLane="best" departSpeed="max" departPos="random" speedFactor="1.15" /><trip id="bus_693907_enh_41" depart="1835.25" from="-1392084250" to="-564298126#9" type="bus_bus" color="255,255,255" departLane="best" departSpeed="max" departPos="random" speedFactor="0.99" /><trip id="bus_693907_enh_42" depart="2013.00" from="564298145" to="-564298126#9" type="bus_bus" color="255,165,0" departLane="best" departSpeed="max" departPos="random" speedFactor="0.86" /><trip id="bus_693907_enh_43" depart="2014.11" from="564298145" to="1054315845#0" type="bus_bus" color="0,0,255" departLane="best" departSpeed="max" departPos="random" speedFactor="1.1" /><trip id="bus_693907_enh_44" depart="2022.10" from="1392084244#0" to="653727192" type="bus_bus" color="128,128,128" departLane="best" departSpeed="max" departPos="random" speedFactor="1.14" /><trip id="bus_693907_enh_45" depart="2166.89" from="1392084244#0" to="653727192" type="bus_bus" color="255,165,0" departLane="best" departSpeed="max" departPos="random" speedFactor="0.92" /><trip id="bus_693907_enh_46" depart="2263.53" from="564298145" to="-564298126#9" type="bus_bus" color="255,255,0" departLane="best" departSpeed="max" departPos="random" speedFactor="0.96" /><trip id="bus_693907_enh_47" depart="2266.96" from="1392084244#0" to="653727192" type="bus_bus" color="128,128,128" departLane="best" departSpeed="max" departPos="random" speedFactor="0.89" /><trip id="bus_693907_enh_48" depart="2321.55" from="-1392084250" to="-564298126#9" type="bus_bus" color="0,128,0" departLane="best" departSpeed="max" departPos="random" speedFactor="0.88" /><trip id="bus_693907_enh_49" depart="2501.22" from="564298145" to="-564298126#9" type="bus_bus" color="128,128,128" departLane="best" departSpeed="max" departPos="random" speedFactor="0.87" /><trip id="bus_693907_enh_50" depart="2512.40" from="1392084244#0" to="653727192" type="bus_bus" color="255,255,0" departLane="best" departSpeed="max" departPos="random" speedFactor="1.09" /><trip id="bus_693907_enh_51" depart="2527.88" from="-1392084250" to="-564298126#9" type="bus_bus" color="0,0,255" departLane="best" departSpeed="max" departPos="random" speedFactor="0.99" /><trip id="bus_693907_enh_52" depart="2655.84" from="1392084244#0" to="653727192" type="bus_bus" color="0,128,0" departLane="best" departSpeed="max" departPos="random" speedFactor="0.86" /><trip id="bus_693907_enh_53" depart="2703.09" from="-1392084250" to="-564298126#9" type="bus_bus" color="0,0,255" departLane="best" departSpeed="max" departPos="random" speedFactor="0.91" /><trip id="bus_693907_enh_54" depart="2792.75" from="-1392084250" to="-564298126#9" type="bus_bus" color="128,128,128" departLane="best" departSpeed="max" departPos="random" speedFactor="1.02" /><trip id="bus_693907_enh_55" depart="2824.06" from="1392084244#0" to="653727192" type="bus_bus" color="255,255,0" departLane="best" departSpeed="max" departPos="random" speedFactor="1.12" /><trip id="bus_693907_enh_56" depart="2938.07" from="-1392084250" to="-564298126#9" type="bus_bus" color="128,128,128" departLane="best" departSpeed="max" departPos="random" speedFactor="1.11" /><trip id="bus_693907_enh_57" depart="2994.24" from="1392084244#0" to="653727192" type="bus_bus" color="255,0,0" departLane="best" departSpeed="max" departPos="random" speedFactor="1.09" /><trip id="bus_693907_enh_58" depart="3031.85" from="1392084244#0" to="653727192" type="bus_bus" color="255,165,0" departLane="best" departSpeed="max" departPos="random" speedFactor="1.03" /><trip id="bus_693907_enh_59" depart="3154.13" from="1392084244#0" to="653727192" type="bus_bus" color="255,255,255" departLane="best" departSpeed="max" departPos="random" speedFactor="1.09" /><trip id="bus_693907_enh_60" depart="3162.94" from="1392084244#0" to="653727192" type="bus_bus" color="0,0,255" departLane="best" departSpeed="max" departPos="random" speedFactor="1.12" /><trip id="bus_693907_enh_61" depart="3293.71" from="1392084244#0" to="653727192" type="bus_bus" color="255,165,0" departLane="best" departSpeed="max" departPos="random" speedFactor="1.14" /><trip id="bus_693907_enh_62" depart="3332.88" from="1392084244#0" to="653727192" type="bus_bus" color="0,128,0" departLane="best" departSpeed="max" departPos="random" speedFactor="0.96" /><trip id="bus_693907_enh_63" depart="3396.38" from="-1392084250" to="-564298126#9" type="bus_bus" color="255,255,0" departLane="best" departSpeed="max" departPos="random" speedFactor="1.06" /><trip id="bus_693907_enh_64" depart="3505.02" from="-1392084250" to="-564298126#9" type="bus_bus" color="128,128,128" departLane="best" departSpeed="max" departPos="random" speedFactor="1.09" /><trip id="bus_693907_enh_65" depart="3552.44" from="-1392084250" to="-564298126#9" type="bus_bus" color="255,165,0" departLane="best" departSpeed="max" departPos="random" speedFactor="1.1" /></routes>