<?xml version="1.0" encoding="UTF-8"?>

<!-- generated on 2025-09-03 01:04:14 by Eclipse SUMO duarouter Version 1.24.0
<duarouterConfiguration xmlns:xsi="http://www.w3.org/2001/XMLSchema-instance" xsi:noNamespaceSchemaLocation="http://sumo.dlr.de/xsd/duarouterConfiguration.xsd">

    <input>
        <net-file value="C:\Users\kgaqu\OneDrive\Documents\4th Year\Capstone 2\v10\backend\networks\st_dominic_area\st_dominic_area.net.xml"/>
        <route-files value="C:\Users\kgaqu\OneDrive\Documents\4th Year\Capstone 2\v10\backend\networks\st_dominic_area\routes\osm.truck.trips.xml"/>
    </input>

    <output>
        <output-file value="C:\Users\kgaqu\OneDrive\Documents\4th Year\Capstone 2\v10\backend\networks\st_dominic_area\routes\osm.truck.rou.xml"/>
    </output>

    <report>
        <ignore-errors value="true"/>
    </report>

</duarouterConfiguration>
-->

<routes xmlns:xsi="http://www.w3.org/2001/XMLSchema-instance" xsi:noNamespaceSchemaLocation="http://sumo.dlr.de/xsd/routes_file.xsd">
    <vType id="truck_truck" vClass="truck"/>
    <vehicle id="truck0" type="truck_truck" depart="0.00" departLane="best" departSpeed="max">
        <route edges="1054315844#0 555020953#0 1326404883"/>
    </vehicle>
    <vehicle id="truck1" type="truck_truck" depart="45.79" departLane="best" departSpeed="max">
        <route edges="-560538898#1 -653727191#1 1054315845#0"/>
    </vehicle>
    <vehicle id="truck2" type="truck_truck" depart="91.58" departLane="best" departSpeed="max">
        <route edges="-560538898#1 -653727191#1 -712245744#1 -564298126#9"/>
    </vehicle>
    <vehicle id="truck3" type="truck_truck" depart="137.37" departLane="best" departSpeed="max">
        <route edges="1054315844#0 555020953#0 653727191#0 653727192"/>
    </vehicle>
    <vehicle id="truck4" type="truck_truck" depart="183.16" departLane="best" departSpeed="max">
        <route edges="-560538898#1 -653727191#1 1054315845#0"/>
    </vehicle>
    <vehicle id="truck5" type="truck_truck" depart="228.95" departLane="best">
        <route edges="555020953#0 1054315845#0"/>
    </vehicle>
    <vehicle id="truck6" type="truck_truck" depart="274.73" departLane="best" departSpeed="max">
        <route edges="1054315844#0 555020953#0 1326404883 564298119#0 657808646"/>
    </vehicle>
    <vehicle id="truck7" type="truck_truck" depart="320.52" departLane="best" departSpeed="max">
        <route edges="1054315844#0 555020953#0 653727191#0 653727192"/>
    </vehicle>
    <vehicle id="truck8" type="truck_truck" depart="366.31" departLane="best" departSpeed="max">
        <route edges="1392084253 712245744#0 1326404883 564298119#0 657808646"/>
    </vehicle>
    <vehicle id="truck9" type="truck_truck" depart="412.10" departLane="best" departSpeed="max">
        <route edges="-560538898#1 -653727191#1 1054315845#0"/>
    </vehicle>
    <vehicle id="truck10" type="truck_truck" depart="457.89" departLane="best" departSpeed="max">
        <route edges="1054315844#0 555020953#0 653727191#0 653727192"/>
    </vehicle>
    <vehicle id="truck11" type="truck_truck" depart="503.68" departLane="best" departSpeed="max">
        <route edges="1392084253 712245744#0 653727191#0 653727192"/>
    </vehicle>
    <vehicle id="truck12" type="truck_truck" depart="549.47" departLane="best" departSpeed="max">
        <route edges="1392084253 712245744#0 653727191#0 653727192"/>
    </vehicle>
    <vehicle id="truck13" type="truck_truck" depart="595.26" departLane="best" departSpeed="max">
        <route edges="564298145#0 922415126 1054315845#0"/>
    </vehicle>
    <vehicle id="truck14" type="truck_truck" depart="641.05" departLane="best" departSpeed="max">
        <route edges="-560538898#1 -653727191#1 -712245744#1 -564298126#9"/>
    </vehicle>
    <vehicle id="truck15" type="truck_truck" depart="686.84" departLane="best" departSpeed="max">
        <route edges="564298145#0 922415126 1054315845#0"/>
    </vehicle>
    <vehicle id="truck16" type="truck_truck" depart="732.63" departLane="best" departSpeed="max">
        <route edges="-560538898#1 -653727191#1 -712245744#1 -564298126#9"/>
    </vehicle>
    <vehicle id="truck17" type="truck_truck" depart="778.41" departLane="best" departSpeed="max">
        <route edges="-560538898#1 -653727191#1 -712245744#1 -564298126#9"/>
    </vehicle>
    <vehicle id="truck18" type="truck_truck" depart="824.20" departLane="best" departSpeed="max">
        <route edges="-560538898#1 -653727191#1 -712245744#1 -564298126#9"/>
    </vehicle>
    <vehicle id="truck19" type="truck_truck" depart="869.99" departLane="best" departSpeed="max">
        <route edges="1054315844#0 555020953#0 1326404883 564298119#0 657808646"/>
    </vehicle>
    <vehicle id="truck20" type="truck_truck" depart="915.78" departLane="best" departSpeed="max">
        <route edges="-560538898#1 -653727191#1 -712245744#1 -564298126#9"/>
    </vehicle>
    <vehicle id="truck21" type="truck_truck" depart="961.57" departLane="best" departSpeed="max">
        <route edges="-560538898#1 -653727191#1 -712245744#1 -564298126#9"/>
    </vehicle>
    <vehicle id="truck22" type="truck_truck" depart="1007.36" departLane="best" departSpeed="max">
        <route edges="1392084253 712245744#0 1326404883 564298119#0 657808646"/>
    </vehicle>
    <vehicle id="truck23" type="truck_truck" depart="1053.15" departLane="best" departSpeed="max">
        <route edges="1054315844#0 555020953#0 1326404883 564298119#0 657808646"/>
    </vehicle>
    <vehicle id="truck24" type="truck_truck" depart="1098.94" departLane="best" departSpeed="max">
        <route edges="1392084253 712245744#0 1326404883 564298119#0 657808646"/>
    </vehicle>
    <vehicle id="truck25" type="truck_truck" depart="1144.73" departLane="best" departSpeed="max">
        <route edges="564298145#0 922415126 -712245744#1 -564298126#9"/>
    </vehicle>
    <vehicle id="truck26" type="truck_truck" depart="1190.52" departLane="best" departSpeed="max">
        <route edges="-560538898#1 -653727191#1 -712245744#1 -564298126#9"/>
    </vehicle>
    <vehicle id="truck27" type="truck_truck" depart="1236.31" departLane="best" departSpeed="max">
        <route edges="1054315844#0 555020953#0 653727191#0"/>
    </vehicle>
    <vehicle id="truck28" type="truck_truck" depart="1282.09" departLane="best" departSpeed="max">
        <route edges="1054315844#0 555020953#0"/>
    </vehicle>
    <vehicle id="truck29" type="truck_truck" depart="1327.88" departLane="best" departSpeed="max">
        <route edges="1054315844#0 555020953#0 653727191#0 653727192"/>
    </vehicle>
    <vehicle id="truck30" type="truck_truck" depart="1373.67" departLane="best" departSpeed="max">
        <route edges="564298145#0 922415126 1054315845#0"/>
    </vehicle>
    <vehicle id="truck31" type="truck_truck" depart="1419.46" departLane="best" departSpeed="max">
        <route edges="1054315844#0 555020953#0 1326404883 564298119#0 657808646"/>
    </vehicle>
    <vehicle id="truck32" type="truck_truck" depart="1465.25" departLane="best" departSpeed="max">
        <route edges="1054315844#0 555020953#0 653727191#0 -653727191#1"/>
    </vehicle>
    <vehicle id="truck33" type="truck_truck" depart="1511.04" departLane="best" departSpeed="max">
        <route edges="1054315844#0 555020953#0 653727191#0 653727192"/>
    </vehicle>
    <vehicle id="truck34" type="truck_truck" depart="1556.83" departLane="best" departSpeed="max">
        <route edges="1392084253 712245744#0 653727191#0 653727192"/>
    </vehicle>
    <vehicle id="truck35" type="truck_truck" depart="1602.62" departLane="best" departSpeed="max">
        <route edges="564298145#0 922415126 1054315845#0"/>
    </vehicle>
    <vehicle id="truck36" type="truck_truck" depart="1648.41" departLane="best" departSpeed="max">
        <route edges="1054315844#0 555020953#0 -712245744#1 -564298126#9 1392084253 712245744#0"/>
    </vehicle>
    <vehicle id="truck37" type="truck_truck" depart="1694.20" departLane="best" departSpeed="max">
        <route edges="1054315844#0 555020953#0"/>
    </vehicle>
    <vehicle id="truck38" type="truck_truck" depart="1739.99" departLane="best" departSpeed="max">
        <route edges="1392084253 712245744#0 653727191#0 653727192"/>
    </vehicle>
    <vehicle id="truck39" type="truck_truck" depart="1785.77" departLane="best" departSpeed="max">
        <route edges="1054315844#0 555020953#0 -712245744#1"/>
    </vehicle>
    <vehicle id="truck40" type="truck_truck" depart="1831.56" departLane="best" departSpeed="max">
        <route edges="-560538898#1 -653727191#1 -712245744#1 -564298126#9"/>
    </vehicle>
    <vehicle id="truck41" type="truck_truck" depart="1877.35" departLane="best" departSpeed="max">
        <route edges="-560538898#1 -653727191#1 1054315845#0"/>
    </vehicle>
    <vehicle id="truck42" type="truck_truck" depart="1923.14" departLane="best" departSpeed="max">
        <route edges="1054315844#0 555020953#0 653727191#0 653727192"/>
    </vehicle>
    <vehicle id="truck43" type="truck_truck" depart="1968.93" departLane="best" departSpeed="max">
        <route edges="1392084253 712245744#0 653727191#0 653727192"/>
    </vehicle>
    <vehicle id="truck44" type="truck_truck" depart="2014.72" departLane="best" departSpeed="max">
        <route edges="564298145#0 922415126 1054315845#0"/>
    </vehicle>
    <vehicle id="truck45" type="truck_truck" depart="2060.51" departLane="best" departSpeed="max">
        <route edges="564298145#0 922415126 -712245744#1 -564298126#9"/>
    </vehicle>
    <vehicle id="truck46" type="truck_truck" depart="2106.30" departLane="best" departSpeed="max">
        <route edges="1392084253 712245744#0 1326404883 564298119#0 657808646"/>
    </vehicle>
    <vehicle id="truck47" type="truck_truck" depart="2152.09" departLane="best" departSpeed="max">
        <route edges="564298145#0 922415126 1054315845#0"/>
    </vehicle>
    <vehicle id="truck48" type="truck_truck" depart="2197.88" departLane="best">
        <route edges="653727191#0 -653727191#1 1054315845#0"/>
    </vehicle>
    <vehicle id="truck49" type="truck_truck" depart="2243.67" departLane="best" departSpeed="max">
        <route edges="564298145#0 922415126 -712245744#1 -564298126#9"/>
    </vehicle>
    <vehicle id="truck50" type="truck_truck" depart="2289.45" departLane="best" departSpeed="max">
        <route edges="1392084253 712245744#0 653727191#0 653727192"/>
    </vehicle>
    <vehicle id="truck51" type="truck_truck" depart="2335.24" departLane="best" departSpeed="max">
        <route edges="564298145#0 922415126 1054315845#0"/>
    </vehicle>
    <vehicle id="truck52" type="truck_truck" depart="2381.03" departLane="best" departSpeed="max">
        <route edges="1392084253 712245744#0 1326404883 564298119#0 657808646"/>
    </vehicle>
    <vehicle id="truck53" type="truck_truck" depart="2426.82" departLane="best" departSpeed="max">
        <route edges="564298145#0 922415126 -712245744#1 -564298126#9"/>
    </vehicle>
    <vehicle id="truck54" type="truck_truck" depart="2472.61" departLane="best" departSpeed="max">
        <route edges="564298145#0 922415126 -712245744#1 -564298126#9"/>
    </vehicle>
    <vehicle id="truck55" type="truck_truck" depart="2518.40" departLane="best" departSpeed="max">
        <route edges="-560538898#1 -653727191#1 1054315845#0"/>
    </vehicle>
    <vehicle id="truck56" type="truck_truck" depart="2564.19" departLane="best" departSpeed="max">
        <route edges="1054315844#0 555020953#0 -712245744#1 -564298126#9 1392084253 712245744#0"/>
    </vehicle>
    <vehicle id="truck57" type="truck_truck" depart="2609.98" departLane="best" departSpeed="max">
        <route edges="1054315844#0 555020953#0 653727191#0 653727192"/>
    </vehicle>
    <vehicle id="truck58" type="truck_truck" depart="2655.77" departLane="best" departSpeed="max">
        <route edges="-560538898#1 -653727191#1 1054315845#0"/>
    </vehicle>
    <vehicle id="truck59" type="truck_truck" depart="2701.56" departLane="best" departSpeed="max">
        <route edges="-560538898#1 -653727191#1 1054315845#0"/>
    </vehicle>
    <vehicle id="truck60" type="truck_truck" depart="2747.34" departLane="best" departSpeed="max">
        <route edges="1392084253 712245744#0 1326404883 564298119#0 657808646"/>
    </vehicle>
    <vehicle id="truck61" type="truck_truck" depart="2793.13" departLane="best" departSpeed="max">
        <route edges="564298145#0 922415126 -712245744#1 -564298126#9"/>
    </vehicle>
    <vehicle id="truck62" type="truck_truck" depart="2838.92" departLane="best" departSpeed="max">
        <route edges="-560538898#1 -653727191#1 1054315845#0"/>
    </vehicle>
    <vehicle id="truck63" type="truck_truck" depart="2884.71" departLane="best" departSpeed="max">
        <route edges="564298145#0 922415126 -712245744#1 -564298126#9"/>
    </vehicle>
    <vehicle id="truck64" type="truck_truck" depart="2930.50" departLane="best" departSpeed="max">
        <route edges="1392084253 712245744#0 1326404883 564298119#0 657808646"/>
    </vehicle>
    <vehicle id="truck65" type="truck_truck" depart="2976.29" departLane="best" departSpeed="max">
        <route edges="1392084253 712245744#0 653727191#0 653727192"/>
    </vehicle>
    <vehicle id="truck66" type="truck_truck" depart="3022.08" departLane="best" departSpeed="max">
        <route edges="1392084253 712245744#0 1326404883 564298119#0 657808646"/>
    </vehicle>
    <vehicle id="truck67" type="truck_truck" depart="3067.87" departLane="best">
        <route edges="653727191#0 -653727191#1 1054315845#0"/>
    </vehicle>
    <vehicle id="truck68" type="truck_truck" depart="3113.66" departLane="best" departSpeed="max">
        <route edges="1392084253 712245744#0 1326404883 564298119#0 657808646"/>
    </vehicle>
    <vehicle id="truck69" type="truck_truck" depart="3159.45" departLane="best" departSpeed="max">
        <route edges="-560538898#1 -653727191#1 1054315845#0"/>
    </vehicle>
    <vehicle id="truck70" type="truck_truck" depart="3205.24" departLane="best" departSpeed="max">
        <route edges="1054315844#0 555020953#0 653727191#0 653727192"/>
    </vehicle>
    <vehicle id="truck71" type="truck_truck" depart="3251.02" departLane="best" departSpeed="max">
        <route edges="1054315844#0 555020953#0 1326404883 564298119#0 657808646"/>
    </vehicle>
    <vehicle id="truck72" type="truck_truck" depart="3296.81" departLane="best" departSpeed="max">
        <route edges="1392084253 712245744#0 653727191#0 653727192"/>
    </vehicle>
    <vehicle id="truck73" type="truck_truck" depart="3342.60" departLane="best" departSpeed="max">
        <route edges="-560538898#1 -653727191#1 -712245744#1 -564298126#9"/>
    </vehicle>
    <vehicle id="truck74" type="truck_truck" depart="3388.39" departLane="best">
        <route edges="-653727191#1 1054315845#0"/>
    </vehicle>
    <vehicle id="truck75" type="truck_truck" depart="3434.18" departLane="best" departSpeed="max">
        <route edges="1054315844#0 555020953#0 1326404883 564298119#0 657808646"/>
    </vehicle>
    <vehicle id="truck76" type="truck_truck" depart="3479.97" departLane="best" departSpeed="max">
        <route edges="1392084253 712245744#0 1326404883 564298119#0"/>
    </vehicle>
    <vehicle id="truck77" type="truck_truck" depart="3525.76" departLane="best" departSpeed="max">
        <route edges="1054315844#0 555020953#0 1326404883 564298119#0 657808646"/>
    </vehicle>
    <vehicle id="truck78" type="truck_truck" depart="3571.55" departLane="best" departSpeed="max">
        <route edges="1054315844#0 555020953#0 1326404883 564298119#0 657808646"/>
    </vehicle>
</routes>
