<?xml version="1.0" encoding="UTF-8"?>

<!-- generated on 2025-09-02 21:34:38.689413 by osmWebWizard.py v1_24_0+0000-b72eb3fabc8
<configuration>
    <net-file value="C:\Users\kgaqu\OneDrive\Documents\4th Year\Capstone 2\v10\osm_importer\osm_scenarios\2025-09-02-21-34-32\osm.net.xml.gz"/>
    <output-trip-file value="C:\Users\kgaqu\OneDrive\Documents\4th Year\Capstone 2\v10\osm_importer\osm_scenarios\2025-09-02-21-34-32\osm.bus.trips.xml"/>
    <route-file value="C:\Users\kgaqu\OneDrive\Documents\4th Year\Capstone 2\v10\osm_importer\osm_scenarios\2025-09-02-21-34-32\osm.bus.rou.xml"/>
    <prefix value="bus"/>
    <trip-attributes value="departLane=&quot;best&quot;"/>
    <fringe-start-attributes value="departSpeed=&quot;max&quot;"/>
    <vehicle-class value="bus"/>
    <fringe-factor value="5"/>
    <edge-permission value="bus"/>
    <via-edge-types value="highway.motorway,highway.motorway_link,highway.trunk_link,highway.primary_link,highway.secondary_link,highway.tertiary_link"/>
    <seed value="43"/>
    <min-distance value="600.0"/>
    <min-distance.fringe value="10.0"/>
    <remove-loops value="True"/>
    <insertion-density value="4.0"/>
</configuration>
-->

<routes xmlns:xsi="http://www.w3.org/2001/XMLSchema-instance" xsi:noNamespaceSchemaLocation="http://sumo.dlr.de/xsd/routes_file.xsd">
    <vType id="bus_bus" vClass="bus"/>
    <trip id="bus0" depart="0.00" from="1054315844#0" to="657808646" departLane="best" type="bus_bus" departSpeed="max"/>
    <trip id="bus1" depart="91.58" from="1392084253" to="657808646" departLane="best" type="bus_bus" departSpeed="max"/>
    <trip id="bus2" depart="183.16" from="1392084253" to="653727192" departLane="best" type="bus_bus" departSpeed="max"/>
    <trip id="bus3" depart="274.73" from="564298145#0" to="1054315845#0" departLane="best" type="bus_bus" departSpeed="max"/>
    <trip id="bus4" depart="366.31" from="1392084253" to="657808646" departLane="best" type="bus_bus" departSpeed="max"/>
    <trip id="bus5" depart="457.89" from="653727191#0" to="1054315845#0" departLane="best" type="bus_bus"/>
    <trip id="bus6" depart="549.47" from="1392084253" to="653727192" departLane="best" type="bus_bus" departSpeed="max"/>
    <trip id="bus7" depart="641.05" from="564298145#0" to="-564298126#9" departLane="best" type="bus_bus" departSpeed="max"/>
    <trip id="bus8" depart="732.63" from="564298145#0" to="-564298126#9" departLane="best" type="bus_bus" departSpeed="max"/>
    <trip id="bus9" depart="824.20" from="-560538898#1" to="-564298126#9" departLane="best" type="bus_bus" departSpeed="max"/>
    <trip id="bus10" depart="915.78" from="1054315844#0" to="653727192" departLane="best" type="bus_bus" departSpeed="max"/>
    <trip id="bus11" depart="1007.36" from="564298145#0" to="1054315845#0" departLane="best" type="bus_bus" departSpeed="max"/>
    <trip id="bus12" depart="1098.94" from="1054315844#0" to="653727192" departLane="best" type="bus_bus" departSpeed="max"/>
    <trip id="bus13" depart="1190.52" from="1392084253" to="657808646" departLane="best" type="bus_bus" departSpeed="max"/>
    <trip id="bus14" depart="1282.09" from="-560538898#1" to="-564298126#9" departLane="best" type="bus_bus" departSpeed="max"/>
    <trip id="bus15" depart="1373.67" from="1392084253" to="653727192" departLane="best" type="bus_bus" departSpeed="max"/>
    <trip id="bus16" depart="1465.25" from="1392084253" to="657808646" departLane="best" type="bus_bus" departSpeed="max"/>
    <trip id="bus17" depart="1556.83" from="-560538898#1" to="-564298126#9" departLane="best" type="bus_bus" departSpeed="max"/>
    <trip id="bus18" depart="1648.41" from="1392084253" to="653727192" departLane="best" type="bus_bus" departSpeed="max"/>
    <trip id="bus19" depart="1739.99" from="1054315844#0" to="653727192" departLane="best" type="bus_bus" departSpeed="max"/>
    <trip id="bus20" depart="1831.56" from="1054315844#0" to="653727192" departLane="best" type="bus_bus" departSpeed="max"/>
    <trip id="bus21" depart="1923.14" from="555020953#0" to="1054315845#0" departLane="best" type="bus_bus"/>
    <trip id="bus22" depart="2014.72" from="1392084253" to="657808646" departLane="best" type="bus_bus" departSpeed="max"/>
    <trip id="bus23" depart="2106.30" from="1392084253" to="653727192" departLane="best" type="bus_bus" departSpeed="max"/>
    <trip id="bus24" depart="2197.88" from="1392084253" to="653727192" departLane="best" type="bus_bus" departSpeed="max"/>
    <trip id="bus25" depart="2289.45" from="1392084253" to="657808646" departLane="best" type="bus_bus" departSpeed="max"/>
    <trip id="bus26" depart="2381.03" from="1054315844#0" to="555020953#0" departLane="best" type="bus_bus" departSpeed="max"/>
    <trip id="bus27" depart="2472.61" from="1054315844#0" to="1326404883" departLane="best" type="bus_bus" departSpeed="max"/>
    <trip id="bus28" depart="2564.19" from="564298145#0" to="1054315845#0" departLane="best" type="bus_bus" departSpeed="max"/>
    <trip id="bus29" depart="2655.77" from="1054315844#0" to="657808646" departLane="best" type="bus_bus" departSpeed="max"/>
    <trip id="bus30" depart="2747.34" from="1054315844#0" to="657808646" departLane="best" type="bus_bus" departSpeed="max"/>
    <trip id="bus31" depart="2838.92" from="1392084253" to="653727192" departLane="best" type="bus_bus" departSpeed="max"/>
    <trip id="bus32" depart="2930.50" from="653727191#0" to="1054315845#0" departLane="best" type="bus_bus"/>
    <trip id="bus33" depart="3022.08" from="1392084253" to="657808646" departLane="best" type="bus_bus" departSpeed="max"/>
    <trip id="bus34" depart="3113.66" from="-653727191#1" to="1054315845#0" departLane="best" type="bus_bus"/>
    <trip id="bus35" depart="3205.24" from="564298145#0" to="1054315845#0" departLane="best" type="bus_bus" departSpeed="max"/>
    <trip id="bus36" depart="3296.81" from="564298145#0" to="1054315845#0" departLane="best" type="bus_bus" departSpeed="max"/>
    <trip id="bus37" depart="3388.39" from="1392084253" to="653727192" departLane="best" type="bus_bus" departSpeed="max"/>
    <trip id="bus38" depart="3479.97" from="1392084253" to="657808646" departLane="best" type="bus_bus" departSpeed="max"/>
    <trip id="bus39" depart="3571.55" from="1054315844#0" to="653727192" departLane="best" type="bus_bus" departSpeed="max"/>
</routes>
