<?xml version='1.0' encoding='utf-8'?>
<routes xmlns:xsi="http://www.w3.org/2001/XMLSchema-instance" xsi:noNamespaceSchemaLocation="http://sumo.dlr.de/xsd/routes_file.xsd"><vType id="truck_truck" vClass="truck" guiShape="truck" color="255,255,255" maxSpeed="25.0" length="10.0" />
    <trip id="truck_696141_0" depart="962.02" from="1054315844#0" to="-564298126#9" via="-653727191#1" departLane="best" type="truck_truck" departSpeed="max" /><trip id="truck_696141_1" depart="855.13" from="1392084244#0" to="1054315845#0" via="-653727191#1" departLane="best" type="truck_truck" departSpeed="max" /><trip id="truck_696141_2" depart="320.67" from="1392084244#0" to="-564298126#9" via="-653727191#1" departLane="best" type="truck_truck" departSpeed="max" /><trip id="truck_696141_3" depart="2779.18" from="1392084244#0" to="1054315845#0" via="-653727191#1" departLane="best" type="truck_truck" departSpeed="max" /><trip id="truck_696141_4" depart="3313.64" from="1392084244#0" to="1054315845#0" via="-653727191#1" departLane="best" type="truck_truck" departSpeed="max" /><trip id="truck_696141_5" depart="641.35" from="-1392084250" to="653727192" via="712245744#0" departLane="best" type="truck_truck" departSpeed="max" /><trip id="truck_696141_6" depart="1282.70" from="-1392084250" to="653727192" via="712245744#0" departLane="best" type="truck_truck" departSpeed="max" /><trip id="truck_696141_7" depart="1710.27" from="1392084244#0" to="-564298126#9" via="-712245744#1" departLane="best" type="truck_truck" departSpeed="max" /><trip id="truck_696141_8" depart="1389.59" from="-1392084250" to="653727192" via="712245744#0" departLane="best" type="truck_truck" departSpeed="max" /><trip id="truck_696141_9" depart="3206.75" from="1392084244#0" to="-564298126#9" via="-653727191#1" departLane="best" type="truck_truck" departSpeed="max" /><trip id="truck_696141_10" depart="1817.16" from="1392084244#0" to="1054315845#0" via="-653727191#1" departLane="best" type="truck_truck" departSpeed="max" /><trip id="truck_696141_11" depart="534.46" from="1054315844#0" to="-564298126#9" via="-653727191#1" departLane="best" type="truck_truck" departSpeed="max" /><trip id="truck_696141_12" depart="2244.72" from="1392084244#0" to="-564298126#9" via="-653727191#1" departLane="best" type="truck_truck" departSpeed="max" /><trip id="truck_696141_13" depart="0.00" from="1054315844#0" to="-564298126#9" via="-653727191#1" departLane="best" type="truck_truck" departSpeed="max" /><trip id="truck_696141_14" depart="3099.86" from="1392084244#0" to="1054315845#0" via="-653727191#1" departLane="best" type="truck_truck" departSpeed="max" /><trip id="truck_696141_15" depart="1496.48" from="-1392084250" to="653727192" via="712245744#0" departLane="best" type="truck_truck" departSpeed="max" /><trip id="truck_696141_16" depart="2351.62" from="1392084244#0" to="1054315845#0" via="-653727191#1" departLane="best" type="truck_truck" departSpeed="max" /><trip id="truck_696141_17" depart="2886.07" from="1392084244#0" to="-564298126#9" via="653727191#0" departLane="best" type="truck_truck" departSpeed="max" /><trip id="truck_696141_18" depart="213.78" from="1054315844#0" to="-564298126#9" via="-653727191#1" departLane="best" type="truck_truck" departSpeed="max" /><trip id="truck_696141_19" depart="2565.40" from="1392084244#0" to="-564298126#9" via="653727191#0" departLane="best" type="truck_truck" departSpeed="max" /><trip id="truck_696141_20" depart="1603.37" from="1392084244#0" to="-564298126#9" via="653727191#0" departLane="best" type="truck_truck" departSpeed="max" /><trip id="truck_696141_21" depart="2137.83" from="1392084244#0" to="-564298126#9" via="653727191#0" departLane="best" type="truck_truck" departSpeed="max" /><trip id="truck_696141_22" depart="2672.29" from="1392084244#0" to="-564298126#9" via="-712245744#1" departLane="best" type="truck_truck" departSpeed="max" /><trip id="truck_696141_23" depart="2030.94" from="1054315844#0" to="-564298126#9" via="-653727191#1" departLane="best" type="truck_truck" departSpeed="max" /><trip id="truck_696141_24" depart="1924.05" from="1392084244#0" to="-564298126#9" via="653727191#0" departLane="best" type="truck_truck" departSpeed="max" /><trip id="truck_696141_25" depart="3527.42" from="1392084244#0" to="1054315845#0" via="-653727191#1" departLane="best" type="truck_truck" departSpeed="max" /><trip id="truck_696141_26" depart="1068.92" from="1392084244#0" to="-564298126#9" via="-712245744#1" departLane="best" type="truck_truck" departSpeed="max" /><trip id="truck_696141_enh_27" depart="0.00" from="564298145" to="-564298126#9" type="truck_truck" color="255,0,0" departLane="best" departSpeed="max" departPos="random" speedFactor="0.98" /><trip id="truck_696141_enh_28" depart="8.46" from="-1392084250" to="1054315845#0" type="truck_truck" color="255,0,0" departLane="best" departSpeed="max" departPos="random" speedFactor="0.87" /><trip id="truck_696141_enh_29" depart="181.11" from="564298145" to="-564298126#9" type="truck_truck" color="255,255,255" departLane="best" departSpeed="max" departPos="random" speedFactor="0.86" /><trip id="truck_696141_enh_30" depart="240.43" from="1054315844#0" to="1326404883" type="truck_truck" color="0,128,0" departLane="best" departSpeed="max" departPos="random" speedFactor="0.85" /><trip id="truck_696141_enh_31" depart="250.03" from="-653727191#1" to="-564298126#9" type="truck_truck" color="0,0,0" departLane="best" departSpeed="max" departPos="random" speedFactor="1.0" /><trip id="truck_696141_enh_32" depart="348.57" from="1054315844#0" to="1326404883" type="truck_truck" color="128,128,128" departLane="best" departSpeed="max" departPos="random" speedFactor="1.07" /><trip id="truck_696141_enh_33" depart="478.37" from="1054315844#0" to="1326404883" type="truck_truck" color="255,255,255" departLane="best" departSpeed="max" departPos="random" speedFactor="1.02" /><trip id="truck_696141_enh_34" depart="504.88" from="-1392084250" to="1054315845#0" type="truck_truck" color="0,0,255" departLane="best" departSpeed="max" departPos="random" speedFactor="1.14" /><trip id="truck_696141_enh_35" depart="522.56" from="-653727191#1" to="-564298126#9" type="truck_truck" color="0,0,0" departLane="best" departSpeed="max" departPos="random" speedFactor="0.98" /><trip id="truck_696141_enh_36" depart="689.48" from="1054315844#0" to="1326404883" type="truck_truck" color="0,128,0" departLane="best" departSpeed="max" departPos="random" speedFactor="0.88" /><trip id="truck_696141_enh_37" depart="692.33" from="-1392084250" to="1054315845#0" type="truck_truck" color="255,255,0" departLane="best" departSpeed="max" departPos="random" speedFactor="0.92" /><trip id="truck_696141_enh_38" depart="783.86" from="564298145" to="1054315845#0" type="truck_truck" color="0,128,0" departLane="best" departSpeed="max" departPos="random" speedFactor="1.11" /><trip id="truck_696141_enh_39" depart="867.89" from="-1392084250" to="-564298126#9" type="truck_truck" color="0,0,255" departLane="best" departSpeed="max" departPos="random" speedFactor="1.11" /><trip id="truck_696141_enh_40" depart="929.72" from="-653727191#1" to="-564298126#9" type="truck_truck" color="0,0,0" departLane="best" departSpeed="max" departPos="random" speedFactor="1.06" /><trip id="truck_696141_enh_41" depart="1042.57" from="-1392084250" to="-564298126#9" type="truck_truck" color="255,255,255" departLane="best" departSpeed="max" departPos="random" speedFactor="1.01" /><trip id="truck_696141_enh_42" depart="1048.02" from="1392084244#0" to="653727192" type="truck_truck" color="0,128,0" departLane="best" departSpeed="max" departPos="random" speedFactor="1.04" /><trip id="truck_696141_enh_43" depart="1152.98" from="-1392084250" to="-564298126#9" type="truck_truck" color="255,0,0" departLane="best" departSpeed="max" departPos="random" speedFactor="1.09" /><trip id="truck_696141_enh_44" depart="1206.65" from="-1392084250" to="-564298126#9" type="truck_truck" color="0,0,255" departLane="best" departSpeed="max" departPos="random" speedFactor="1.03" /><trip id="truck_696141_enh_45" depart="1300.19" from="1392084244#0" to="653727192" type="truck_truck" color="255,255,255" departLane="best" departSpeed="max" departPos="random" speedFactor="1.0" /><trip id="truck_696141_enh_46" depart="1376.58" from="1392084244#0" to="653727192" type="truck_truck" color="255,0,0" departLane="best" departSpeed="max" departPos="random" speedFactor="1.07" /><trip id="truck_696141_enh_47" depart="1413.17" from="-1392084250" to="-564298126#9" type="truck_truck" color="0,128,0" departLane="best" departSpeed="max" departPos="random" speedFactor="0.91" /><trip id="truck_696141_enh_48" depart="1549.85" from="1392084244#0" to="653727192" type="truck_truck" color="255,0,0" departLane="best" departSpeed="max" departPos="random" speedFactor="0.93" /><trip id="truck_696141_enh_49" depart="1561.46" from="-1392084250" to="-564298126#9" type="truck_truck" color="255,0,0" departLane="best" departSpeed="max" departPos="random" speedFactor="1.15" /><trip id="truck_696141_enh_50" depart="1623.90" from="-1392084250" to="-564298126#9" type="truck_truck" color="0,0,255" departLane="best" departSpeed="max" departPos="random" speedFactor="0.92" /><trip id="truck_696141_enh_51" depart="1712.04" from="1392084244#0" to="653727192" type="truck_truck" color="128,128,128" departLane="best" departSpeed="max" departPos="random" speedFactor="0.99" /><trip id="truck_696141_enh_52" depart="1824.91" from="-1392084250" to="-564298126#9" type="truck_truck" color="255,0,0" departLane="best" departSpeed="max" departPos="random" speedFactor="0.96" /><trip id="truck_696141_enh_53" depart="1876.85" from="-1392084250" to="-564298126#9" type="truck_truck" color="255,255,255" departLane="best" departSpeed="max" departPos="random" speedFactor="1.05" /><trip id="truck_696141_enh_54" depart="1886.53" from="-1392084250" to="-564298126#9" type="truck_truck" color="255,255,0" departLane="best" departSpeed="max" departPos="random" speedFactor="0.93" /><trip id="truck_696141_enh_55" depart="2071.91" from="-1392084250" to="-564298126#9" type="truck_truck" color="255,255,255" departLane="best" departSpeed="max" departPos="random" speedFactor="1.02" /><trip id="truck_696141_enh_56" depart="2085.08" from="-1392084250" to="-564298126#9" type="truck_truck" color="255,255,255" departLane="best" departSpeed="max" departPos="random" speedFactor="0.9" /><trip id="truck_696141_enh_57" depart="2088.59" from="-1392084250" to="-564298126#9" type="truck_truck" color="0,128,0" departLane="best" departSpeed="max" departPos="random" speedFactor="1.15" /><trip id="truck_696141_enh_58" depart="2223.32" from="-1392084250" to="-564298126#9" type="truck_truck" color="0,0,0" departLane="best" departSpeed="max" departPos="random" speedFactor="0.99" /><trip id="truck_696141_enh_59" depart="2323.99" from="-1392084250" to="-564298126#9" type="truck_truck" color="0,128,0" departLane="best" departSpeed="max" departPos="random" speedFactor="0.86" /><trip id="truck_696141_enh_60" depart="2351.43" from="-1392084250" to="-564298126#9" type="truck_truck" color="128,128,128" departLane="best" departSpeed="max" departPos="random" speedFactor="1.1" /><trip id="truck_696141_enh_61" depart="2406.61" from="1392084244#0" to="653727192" type="truck_truck" color="255,255,0" departLane="best" departSpeed="max" departPos="random" speedFactor="1.14" /><trip id="truck_696141_enh_62" depart="2587.03" from="1392084244#0" to="-564298126#9" via="-653727191#1" type="truck_truck" color="0,128,0" departLane="best" departSpeed="max" departPos="random" speedFactor="0.92" /><trip id="truck_696141_enh_63" depart="2613.40" from="1392084244#0" to="-564298126#9" via="-653727191#1" type="truck_truck" color="255,255,255" departLane="best" departSpeed="max" departPos="random" speedFactor="0.96" /><trip id="truck_696141_enh_64" depart="2737.74" from="1054315844#0" to="-564298126#9" via="-653727191#1" type="truck_truck" color="255,255,0" departLane="best" departSpeed="max" departPos="random" speedFactor="0.89" /><trip id="truck_696141_enh_65" depart="2783.53" from="1392084244#0" to="-564298126#9" via="-653727191#1" type="truck_truck" color="0,0,255" departLane="best" departSpeed="max" departPos="random" speedFactor="0.88" /><trip id="truck_696141_enh_66" depart="2879.16" from="1392084244#0" to="1054315845#0" via="-653727191#1" type="truck_truck" color="255,255,0" departLane="best" departSpeed="max" departPos="random" speedFactor="0.87" /><trip id="truck_696141_enh_67" depart="2929.06" from="1392084244#0" to="1054315845#0" via="-653727191#1" type="truck_truck" color="255,255,255" departLane="best" departSpeed="max" departPos="random" speedFactor="1.09" /><trip id="truck_696141_enh_68" depart="3024.18" from="1392084244#0" to="1054315845#0" via="-653727191#1" type="truck_truck" color="128,128,128" departLane="best" departSpeed="max" departPos="random" speedFactor="0.99" /><trip id="truck_696141_enh_69" depart="3101.89" from="1054315844#0" to="-564298126#9" via="-653727191#1" type="truck_truck" color="0,0,255" departLane="best" departSpeed="max" departPos="random" speedFactor="0.86" /><trip id="truck_696141_enh_70" depart="3146.66" from="1392084244#0" to="-564298126#9" via="-653727191#1" type="truck_truck" color="128,128,128" departLane="best" departSpeed="max" departPos="random" speedFactor="0.91" /><trip id="truck_696141_enh_71" depart="3256.75" from="1054315844#0" to="-564298126#9" via="-653727191#1" type="truck_truck" color="255,255,0" departLane="best" departSpeed="max" departPos="random" speedFactor="1.02" /><trip id="truck_696141_enh_72" depart="3396.72" from="1392084244#0" to="1054315845#0" via="-653727191#1" type="truck_truck" color="255,255,255" departLane="best" departSpeed="max" departPos="random" speedFactor="1.12" /><trip id="truck_696141_enh_73" depart="3441.81" from="1054315844#0" to="-564298126#9" via="-653727191#1" type="truck_truck" color="255,255,0" departLane="best" departSpeed="max" departPos="random" speedFactor="1.11" /><trip id="truck_696141_enh_74" depart="3483.65" from="1054315844#0" to="-564298126#9" via="-653727191#1" type="truck_truck" color="255,0,0" departLane="best" departSpeed="max" departPos="random" speedFactor="1.09" /></routes>