<?xml version="1.0" encoding="UTF-8"?>

<!-- generated on 2025-09-26 19:54:58 by Eclipse SUMO duarouter Version 1.24.0
<duarouterConfiguration xmlns:xsi="http://www.w3.org/2001/XMLSchema-instance" xsi:noNamespaceSchemaLocation="http://sumo.dlr.de/xsd/duarouterConfiguration.xsd">

    <input>
        <net-file value="C:/Users/kgaqu/OneDrive/Documents/4th Year/Capstone 2/v10/backend/networks/st_dominic_area/st_dominic_area.net.xml"/>
        <route-files value="C:/Users/kgaqu/AppData/Local/Temp/tmps9hrn59o.trips.xml"/>
    </input>

    <output>
        <output-file value="C:/Users/kgaqu/OneDrive/Documents/4th Year/Capstone 2/v10/backend/networks/st_dominic_area/routes/osm.enhanced.rou.xml"/>
    </output>

    <processing>
        <max-alternatives value="3"/>
        <remove-loops value="true"/>
        <weights.random-factor value="1.2"/>
        <route-choice-method value="gawron"/>
    </processing>

    <report>
        <ignore-errors value="true"/>
    </report>

</duarouterConfiguration>
-->

<routes xmlns:xsi="http://www.w3.org/2001/XMLSchema-instance" xsi:noNamespaceSchemaLocation="http://sumo.dlr.de/xsd/routes_file.xsd">
    <vType id="veh_passenger" maxSpeed="55.56" vClass="passenger" guiShape="passenger" color="grey" accel="2.6" decel="4.5"/>
    <vehicle id="vehicle_13" type="veh_passenger" depart="1.00" departLane="best" departSpeed="max">
        <route edges="1054315844#0 555020953#0 1326404883"/>
    </vehicle>
    <vehicle id="vehicle_43" type="veh_passenger" depart="1.20" departLane="best" departPos="random" departSpeed="max" color="255,20,147" speedFactor="0.8900">
        <route edges="1392084244#0 712245744#0 1054315845#0"/>
    </vehicle>
    <vType id="bus_bus" length="12.00" maxSpeed="27.78" vClass="bus" guiShape="bus" color="yellow"/>
    <vehicle id="vehicle_113" type="bus_bus" depart="4.32" departLane="best" departPos="random" departSpeed="max" color="255,165,0" speedFactor="0.8500">
        <route edges="1054315844#0 555020953#0 653727191#0"/>
    </vehicle>
    <vehicle id="vehicle_114" type="bus_bus" depart="8.46" departLane="best" departPos="random" departSpeed="max" color="white" speedFactor="1.0000">
        <route edges="-653727191#1 -712245744#1 -564298126#9"/>
    </vehicle>
    <vType id="truck_truck" length="10.00" maxSpeed="25.00" vClass="truck" guiShape="truck" color="white"/>
    <vehicle id="vehicle_194" type="truck_truck" depart="8.46" departLane="best" departPos="random" departSpeed="max" color="red" speedFactor="0.8700">
        <route edges="-1392084250 -653727191#1 1054315845#0"/>
    </vehicle>
    <vType id="motorcycle_motorcycle" length="2.50" maxSpeed="50.00" vClass="motorcycle" guiShape="motorcycle" color="red"/>
    <vehicle id="vehicle_257" type="motorcycle_motorcycle" depart="8.57" departLane="best" departPos="random" departSpeed="max" color="white" speedFactor="0.9000">
        <route edges="712245744#0 653727191#0"/>
    </vehicle>
    <vehicle id="vehicle_115" type="bus_bus" depart="9.11" departLane="best" departPos="random" departSpeed="max" color="blue" speedFactor="1.0700">
        <route edges="-1392084250 -653727191#1 -712245744#1 -564298126#9"/>
    </vehicle>
    <vehicle id="vehicle_18" type="veh_passenger" depart="71.26" departLane="best" departSpeed="max">
        <route edges="-1392084250 -653727191#1 -712245744#1 -564298126#9"/>
    </vehicle>
    <vehicle id="vehicle_10" type="veh_passenger" depart="142.52" departLane="best" departSpeed="max">
        <route edges="-1392084250 -653727191#1 -712245744#1 -564298126#9"/>
    </vehicle>
    <vehicle id="vehicle_116" type="bus_bus" depart="160.02" departLane="best" departPos="random" departSpeed="max" color="yellow" speedFactor="1.0200">
        <route edges="1392084244#0 712245744#0 1326404883"/>
    </vehicle>
    <vehicle id="vehicle_258" type="motorcycle_motorcycle" depart="163.91" departLane="best" departPos="random" departSpeed="max" color="yellow" speedFactor="0.8600">
        <route edges="-1392084250 -653727191#1 -712245744#1"/>
    </vehicle>
    <vehicle id="vehicle_195" type="truck_truck" depart="181.11" departLane="best" departPos="random" departSpeed="max" color="white" speedFactor="0.8600">
        <route edges="564298145 -712245744#1 -564298126#9"/>
    </vehicle>
    <vehicle id="vehicle_44" type="veh_passenger" depart="182.31" departLane="best" departPos="random" departSpeed="max" color="192,192,192" speedFactor="0.9000">
        <route edges="1392084244#0 712245744#0 653727191#0 653727192"/>
    </vehicle>
    <vehicle id="vehicle_100" type="bus_bus" depart="213.78" departLane="best" departSpeed="max">
        <route edges="1392084244#0 712245744#0 653727191#0 -653727191#1 -712245744#1 -564298126#9"/>
    </vehicle>
    <vehicle id="vehicle_184" type="truck_truck" depart="213.78" departLane="best" departSpeed="max">
        <route edges="1054315844#0 555020953#0 653727191#0 -653727191#1 -712245744#1 -564298126#9"/>
    </vehicle>
    <vehicle id="vehicle_259" type="motorcycle_motorcycle" depart="229.68" departLane="best" departPos="random" departSpeed="max" color="128,0,128" speedFactor="1.0100">
        <route edges="-653727191#1 1054315845#0"/>
    </vehicle>
    <vehicle id="vehicle_117" type="bus_bus" depart="233.37" departLane="best" departPos="random" departSpeed="max" color="0,128,0" speedFactor="1.1400">
        <route edges="1392084244#0 712245744#0"/>
    </vehicle>
    <vehicle id="vehicle_45" type="veh_passenger" depart="236.88" departLane="best" departPos="random" departSpeed="max" color="128,0,128" speedFactor="0.9700">
        <route edges="712245744#0 1326404883"/>
    </vehicle>
    <vehicle id="vehicle_196" type="truck_truck" depart="240.43" departLane="best" departPos="random" departSpeed="max" color="0,128,0" speedFactor="0.8500">
        <route edges="1054315844#0 555020953#0 1326404883"/>
    </vehicle>
    <vehicle id="vehicle_118" type="bus_bus" depart="245.92" departLane="best" departPos="random" departSpeed="max" color="white" speedFactor="0.9800">
        <route edges="-653727191#1 -712245744#1 -564298126#9"/>
    </vehicle>
    <vehicle id="vehicle_260" type="motorcycle_motorcycle" depart="247.10" departLane="best" departPos="random" departSpeed="max" color="black" speedFactor="0.9900">
        <route edges="1054315844#0 555020953#0 653727191#0"/>
    </vehicle>
    <vehicle id="vehicle_197" type="truck_truck" depart="250.03" departLane="best" departPos="random" departSpeed="max" color="black" speedFactor="1.0000">
        <route edges="-653727191#1 -712245744#1 -564298126#9"/>
    </vehicle>
    <vehicle id="vehicle_46" type="veh_passenger" depart="257.66" departLane="best" departPos="random" departSpeed="max" color="cyan" speedFactor="1.0400">
        <route edges="1392084244#0 712245744#0 653727191#0"/>
    </vehicle>
    <vehicle id="vehicle_40" type="veh_passenger" depart="318.92" departLane="best" departPos="random" departSpeed="max" color="cyan" speedFactor="1.1200">
        <route edges="564298145 -712245744#1"/>
    </vehicle>
    <vehicle id="vehicle_168" type="truck_truck" depart="320.67" departLane="best" departSpeed="max">
        <route edges="1392084244#0 712245744#0 653727191#0 -653727191#1 -712245744#1 -564298126#9"/>
    </vehicle>
    <vehicle id="vehicle_261" type="motorcycle_motorcycle" depart="323.68" departLane="best" departPos="random" departSpeed="max" color="128,0,128" speedFactor="0.9600">
        <route edges="1392084244#0 712245744#0 1326404883"/>
    </vehicle>
    <vehicle id="vehicle_119" type="bus_bus" depart="335.42" departLane="best" departPos="random" departSpeed="max" color="255,165,0" speedFactor="0.8800">
        <route edges="1392084244#0 712245744#0"/>
    </vehicle>
    <vehicle id="vehicle_47" type="veh_passenger" depart="344.60" departLane="best" departPos="random" departSpeed="max" color="red" speedFactor="0.9000">
        <route edges="1054315844#0 555020953#0"/>
    </vehicle>
    <vehicle id="vehicle_198" type="truck_truck" depart="348.57" departLane="best" departPos="random" departSpeed="max" color="grey" speedFactor="1.0700">
        <route edges="1054315844#0 555020953#0 1326404883"/>
    </vehicle>
    <vehicle id="vehicle_27" type="veh_passenger" depart="356.31" departLane="best" departSpeed="max">
        <route edges="-1392084250 -653727191#1 -712245744#1 -564298126#9"/>
    </vehicle>
    <vehicle id="vehicle_246" type="motorcycle_motorcycle" depart="427.57" departLane="best">
        <route edges="555020953#0 653727191#0 653727192"/>
    </vehicle>
    <vehicle id="vehicle_262" type="motorcycle_motorcycle" depart="434.25" departLane="best" departPos="random" departSpeed="max" color="blue" speedFactor="1.0500">
        <route edges="564298145 -712245744#1"/>
    </vehicle>
    <vehicle id="vehicle_263" type="motorcycle_motorcycle" depart="446.45" departLane="best" departPos="random" departSpeed="max" color="yellow" speedFactor="0.8900">
        <route edges="555020953#0 1054315845#0"/>
    </vehicle>
    <vehicle id="vehicle_48" type="veh_passenger" depart="453.19" departLane="best" departPos="random" departSpeed="max" color="blue" speedFactor="0.8600">
        <route edges="-712245744#1 -564298126#9"/>
    </vehicle>
    <vehicle id="vehicle_49" type="veh_passenger" depart="456.06" departLane="best" departPos="random" departSpeed="max" color="128,0,128" speedFactor="1.0100">
        <route edges="653727191#0 653727192"/>
    </vehicle>
    <vehicle id="vehicle_120" type="bus_bus" depart="459.19" departLane="best" departPos="random" departSpeed="max" color="grey" speedFactor="0.9200">
        <route edges="564298145 -712245744#1 -564298126#9"/>
    </vehicle>
    <vehicle id="vehicle_199" type="truck_truck" depart="478.37" departLane="best" departPos="random" departSpeed="max" color="white" speedFactor="1.0200">
        <route edges="1054315844#0 555020953#0 1326404883"/>
    </vehicle>
    <vehicle id="vehicle_264" type="motorcycle_motorcycle" depart="494.54" departLane="best" departPos="random" departSpeed="max" color="blue" speedFactor="0.9000">
        <route edges="-1392084250 -653727191#1"/>
    </vehicle>
    <vehicle id="vehicle_121" type="bus_bus" depart="504.43" departLane="best" departPos="random" departSpeed="max" color="255,165,0" speedFactor="1.1100">
        <route edges="-1392084250 -653727191#1 -712245744#1"/>
    </vehicle>
    <vehicle id="vehicle_200" type="truck_truck" depart="504.88" departLane="best" departPos="random" departSpeed="max" color="blue" speedFactor="1.1400">
        <route edges="-1392084250 -653727191#1 1054315845#0"/>
    </vehicle>
    <vehicle id="vehicle_122" type="bus_bus" depart="508.25" departLane="best" departPos="random" departSpeed="max" color="0,128,0" speedFactor="1.1100">
        <route edges="564298145 -712245744#1 -564298126#9"/>
    </vehicle>
    <vehicle id="vehicle_50" type="veh_passenger" depart="511.32" departLane="best" departPos="random" departSpeed="max" color="50,205,50" speedFactor="0.8900">
        <route edges="-653727191#1 1054315845#0"/>
    </vehicle>
    <vehicle id="vehicle_265" type="motorcycle_motorcycle" depart="513.68" departLane="best" departPos="random" departSpeed="max" color="255,165,0" speedFactor="0.9500">
        <route edges="-653727191#1 1054315845#0"/>
    </vehicle>
    <vehicle id="vehicle_51" type="veh_passenger" depart="515.67" departLane="best" departPos="random" departSpeed="max" color="50,205,50" speedFactor="1.0000">
        <route edges="564298145 -712245744#1 -564298126#9"/>
    </vehicle>
    <vehicle id="vehicle_201" type="truck_truck" depart="522.56" departLane="best" departPos="random" departSpeed="max" color="black" speedFactor="0.9800">
        <route edges="-653727191#1 -712245744#1 -564298126#9"/>
    </vehicle>
    <vehicle id="vehicle_177" type="truck_truck" depart="534.46" departLane="best" departSpeed="max">
        <route edges="1054315844#0 555020953#0 653727191#0 -653727191#1 -712245744#1 -564298126#9"/>
    </vehicle>
    <vehicle id="vehicle_2" type="veh_passenger" depart="570.09" departLane="best" departSpeed="max">
        <route edges="1392084244#0 712245744#0 653727191#0 653727192"/>
    </vehicle>
    <vehicle id="vehicle_19" type="veh_passenger" depart="641.35" departLane="best" departSpeed="max">
        <route edges="-1392084250 -653727191#1 1054315845#0"/>
    </vehicle>
    <vehicle id="vehicle_108" type="bus_bus" depart="641.35" departLane="best" departSpeed="max">
        <route edges="1392084244#0 712245744#0 653727191#0 -653727191#1 1054315845#0"/>
    </vehicle>
    <vehicle id="vehicle_171" type="truck_truck" depart="641.35" departLane="best" departSpeed="max">
        <route edges="-1392084250 -653727191#1 -712245744#1 -564298126#9 1392084244#0 712245744#0 653727191#0 653727192"/>
    </vehicle>
    <vehicle id="vehicle_245" type="motorcycle_motorcycle" depart="641.35" departLane="best" departSpeed="max">
        <route edges="1054315844#0 555020953#0 1326404883"/>
    </vehicle>
    <vehicle id="vehicle_123" type="bus_bus" depart="660.27" departLane="best" departPos="random" departSpeed="max" color="white" speedFactor="1.0600">
        <route edges="-1392084250 -653727191#1 1054315845#0"/>
    </vehicle>
    <vehicle id="vehicle_41" type="veh_passenger" depart="662.83" departLane="best" departPos="random" departSpeed="max" color="255,165,0" speedFactor="1.0900">
        <route edges="564298145 -712245744#1"/>
    </vehicle>
    <vehicle id="vehicle_124" type="bus_bus" depart="665.95" departLane="best" departPos="random" departSpeed="max" color="yellow" speedFactor="1.0100">
        <route edges="1054315844#0 555020953#0 653727191#0 653727192"/>
    </vehicle>
    <vehicle id="vehicle_266" type="motorcycle_motorcycle" depart="679.08" departLane="best" departPos="random" departSpeed="max" color="black" speedFactor="1.1100">
        <route edges="1054315844#0 555020953#0 -712245744#1 -564298126#9"/>
    </vehicle>
    <vehicle id="vehicle_267" type="motorcycle_motorcycle" depart="680.57" departLane="best" departPos="random" departSpeed="max" color="yellow" speedFactor="0.9000">
        <route edges="555020953#0 1054315845#0"/>
    </vehicle>
    <vehicle id="vehicle_202" type="truck_truck" depart="689.48" departLane="best" departPos="random" departSpeed="max" color="0,128,0" speedFactor="0.8800">
        <route edges="1054315844#0 555020953#0 1326404883"/>
    </vehicle>
    <vehicle id="vehicle_203" type="truck_truck" depart="692.33" departLane="best" departPos="random" departSpeed="max" color="yellow" speedFactor="0.9200">
        <route edges="-1392084250 -653727191#1 1054315845#0"/>
    </vehicle>
    <vehicle id="vehicle_52" type="veh_passenger" depart="708.27" departLane="best" departPos="random" departSpeed="max" color="255,165,0" speedFactor="0.8700">
        <route edges="653727191#0 653727192"/>
    </vehicle>
    <vehicle id="vehicle_53" type="veh_passenger" depart="710.12" departLane="best" departPos="random" departSpeed="max" color="128,0,128" speedFactor="1.0400">
        <route edges="564298145 653727191#0 653727192"/>
    </vehicle>
    <vehicle id="vehicle_33" type="veh_passenger" depart="712.61" departLane="best">
        <route edges="-653727191#1 -712245744#1 -564298126#9"/>
    </vehicle>
    <vehicle id="vehicle_268" type="motorcycle_motorcycle" depart="746.49" departLane="best" departPos="random" departSpeed="max" color="red" speedFactor="1.1100">
        <route edges="712245744#0 653727191#0 653727192"/>
    </vehicle>
    <vehicle id="vehicle_125" type="bus_bus" depart="760.10" departLane="best" departPos="random" departSpeed="max" color="255,165,0" speedFactor="1.0400">
        <route edges="-653727191#1 1054315845#0"/>
    </vehicle>
    <vehicle id="vehicle_54" type="veh_passenger" depart="778.18" departLane="best" departPos="random" departSpeed="max" color="grey" speedFactor="0.8700">
        <route edges="712245744#0 1326404883"/>
    </vehicle>
    <vehicle id="vehicle_204" type="truck_truck" depart="783.86" departLane="best" departPos="random" departSpeed="max" color="0,128,0" speedFactor="1.1100">
        <route edges="564298145 1054315845#0"/>
    </vehicle>
    <vehicle id="vehicle_9" type="veh_passenger" depart="783.87" departLane="best" departSpeed="max">
        <route edges="1392084244#0 712245744#0 1326404883"/>
    </vehicle>
    <vehicle id="vehicle_126" type="bus_bus" depart="833.73" departLane="best" departPos="random" departSpeed="max" color="red" speedFactor="1.0900">
        <route edges="-1392084250 -653727191#1 1054315845#0"/>
    </vehicle>
    <vehicle id="vehicle_269" type="motorcycle_motorcycle" depart="840.59" departLane="best" departPos="random" departSpeed="max" color="red" speedFactor="0.9600">
        <route edges="653727191#0 653727192"/>
    </vehicle>
    <vehicle id="vehicle_105" type="bus_bus" depart="855.13" departLane="best" departSpeed="max">
        <route edges="1392084244#0 712245744#0 653727191#0 -653727191#1 -712245744#1 -564298126#9"/>
    </vehicle>
    <vehicle id="vehicle_167" type="truck_truck" depart="855.13" departLane="best" departSpeed="max">
        <route edges="1392084244#0 712245744#0 653727191#0 -653727191#1 1054315845#0"/>
    </vehicle>
    <vehicle id="vehicle_249" type="motorcycle_motorcycle" depart="855.13" departLane="best" departSpeed="max">
        <route edges="-1392084250 -653727191#1 1054315845#0"/>
    </vehicle>
    <vehicle id="vehicle_270" type="motorcycle_motorcycle" depart="865.72" departLane="best" departPos="random" departSpeed="max" color="black" speedFactor="0.9100">
        <route edges="-653727191#1 1054315845#0"/>
    </vehicle>
    <vehicle id="vehicle_205" type="truck_truck" depart="867.89" departLane="best" departPos="random" departSpeed="max" color="blue" speedFactor="1.1100">
        <route edges="-1392084250 -653727191#1 -712245744#1 -564298126#9"/>
    </vehicle>
    <vehicle id="vehicle_55" type="veh_passenger" depart="881.73" departLane="best" departPos="random" departSpeed="max" color="139,69,19" speedFactor="0.8800">
        <route edges="1054315844#0 555020953#0 -712245744#1"/>
    </vehicle>
    <vehicle id="vehicle_56" type="veh_passenger" depart="882.11" departLane="best" departPos="random" departSpeed="max" color="blue" speedFactor="1.0800">
        <route edges="712245744#0 653727191#0 653727192"/>
    </vehicle>
    <vehicle id="vehicle_127" type="bus_bus" depart="909.74" departLane="best" departPos="random" departSpeed="max" color="0,128,0" speedFactor="1.0300">
        <route edges="1392084244#0 712245744#0 653727191#0"/>
    </vehicle>
    <vehicle id="vehicle_271" type="motorcycle_motorcycle" depart="910.96" departLane="best" departPos="random" departSpeed="max" color="blue" speedFactor="0.8800">
        <route edges="1054315844#0 555020953#0 1326404883"/>
    </vehicle>
    <vehicle id="vehicle_206" type="truck_truck" depart="929.72" departLane="best" departPos="random" departSpeed="max" color="black" speedFactor="1.0600">
        <route edges="-653727191#1 -712245744#1 -564298126#9"/>
    </vehicle>
    <vehicle id="vehicle_57" type="veh_passenger" depart="936.31" departLane="best" departPos="random" departSpeed="max" color="0,128,0" speedFactor="0.9500">
        <route edges="1054315844#0 555020953#0 -712245744#1"/>
    </vehicle>
    <vehicle id="vehicle_42" type="veh_passenger" depart="944.42" departLane="best" departPos="random" departSpeed="max" color="139,69,19" speedFactor="1.0200">
        <route edges="1392084244#0 712245744#0"/>
    </vehicle>
    <vehicle id="vehicle_166" type="truck_truck" depart="962.02" departLane="best" departSpeed="max">
        <route edges="1054315844#0 555020953#0 653727191#0 -653727191#1 -712245744#1 -564298126#9"/>
    </vehicle>
    <vehicle id="vehicle_272" type="motorcycle_motorcycle" depart="996.15" departLane="best" departPos="random" departSpeed="max" color="red" speedFactor="0.9800">
        <route edges="-712245744#1 -564298126#9"/>
    </vehicle>
    <vehicle id="vehicle_37" type="veh_passenger" depart="997.66" departLane="best" departSpeed="max">
        <route edges="-1392084250 -653727191#1 -712245744#1"/>
    </vehicle>
    <vehicle id="vehicle_273" type="motorcycle_motorcycle" depart="1006.16" departLane="best" departPos="random" departSpeed="max" color="black" speedFactor="0.9900">
        <route edges="712245744#0 653727191#0 653727192"/>
    </vehicle>
    <vehicle id="vehicle_128" type="bus_bus" depart="1012.36" departLane="best" departPos="random" departSpeed="max" color="yellow" speedFactor="1.0000">
        <route edges="-1392084250 -653727191#1 -712245744#1 -564298126#9"/>
    </vehicle>
    <vehicle id="vehicle_129" type="bus_bus" depart="1021.77" departLane="best" departPos="random" departSpeed="max" color="red" speedFactor="1.0700">
        <route edges="1054315844#0 555020953#0 653727191#0 653727192"/>
    </vehicle>
    <vehicle id="vehicle_207" type="truck_truck" depart="1042.57" departLane="best" departPos="random" departSpeed="max" color="white" speedFactor="1.0100">
        <route edges="-1392084250 -653727191#1 -712245744#1 -564298126#9"/>
    </vehicle>
    <vehicle id="vehicle_208" type="truck_truck" depart="1048.02" departLane="best" departPos="random" departSpeed="max" color="0,128,0" speedFactor="1.0400">
        <route edges="1392084244#0 712245744#0 653727191#0 653727192"/>
    </vehicle>
    <vehicle id="vehicle_58" type="veh_passenger" depart="1048.41" departLane="best" departPos="random" departSpeed="max" color="black" speedFactor="1.1100">
        <route edges="712245744#0 1054315845#0"/>
    </vehicle>
    <vehicle id="vehicle_59" type="veh_passenger" depart="1049.07" departLane="best" departPos="random" departSpeed="max" color="blue" speedFactor="0.9000">
        <route edges="1392084244#0 712245744#0 1326404883"/>
    </vehicle>
    <vehicle id="vehicle_34" type="veh_passenger" depart="1068.92" departLane="best" departSpeed="max">
        <route edges="-1392084250 -653727191#1 -712245744#1 -564298126#9"/>
    </vehicle>
    <vehicle id="vehicle_192" type="truck_truck" depart="1068.92" departLane="best" departSpeed="max">
        <route edges="1392084244#0 712245744#0 -712245744#1 -564298126#9"/>
    </vehicle>
    <vehicle id="vehicle_252" type="motorcycle_motorcycle" depart="1068.92" departLane="best" departSpeed="max">
        <route edges="1054315844#0 555020953#0 653727191#0 653727192"/>
    </vehicle>
    <vehicle id="vehicle_274" type="motorcycle_motorcycle" depart="1119.62" departLane="best" departPos="random" departSpeed="max" color="red" speedFactor="0.9000">
        <route edges="-653727191#1 1326404883"/>
    </vehicle>
    <vehicle id="vehicle_130" type="bus_bus" depart="1124.97" departLane="best" departPos="random" departSpeed="max" color="255,165,0" speedFactor="0.9100">
        <route edges="1392084244#0 712245744#0 1326404883"/>
    </vehicle>
    <vehicle id="vehicle_275" type="motorcycle_motorcycle" depart="1152.80" departLane="best" departPos="random" departSpeed="max" color="black" speedFactor="1.0800">
        <route edges="653727191#0 653727192"/>
    </vehicle>
    <vehicle id="vehicle_209" type="truck_truck" depart="1152.98" departLane="best" departPos="random" departSpeed="max" color="red" speedFactor="1.0900">
        <route edges="-1392084250 -653727191#1 -712245744#1 -564298126#9"/>
    </vehicle>
    <vehicle id="vehicle_131" type="bus_bus" depart="1177.48" departLane="best" departPos="random" departSpeed="max" color="red" speedFactor="0.9300">
        <route edges="564298145 -712245744#1 -564298126#9"/>
    </vehicle>
    <vehicle id="vehicle_60" type="veh_passenger" depart="1178.36" departLane="best" departPos="random" departSpeed="max" color="139,69,19" speedFactor="1.0600">
        <route edges="1392084244#0 712245744#0 1326404883"/>
    </vehicle>
    <vehicle id="vehicle_210" type="truck_truck" depart="1206.65" departLane="best" departPos="random" departSpeed="max" color="blue" speedFactor="1.0300">
        <route edges="-1392084250 -653727191#1 -712245744#1 -564298126#9"/>
    </vehicle>
    <vehicle id="vehicle_38" type="veh_passenger" depart="1211.44" departLane="best">
        <route edges="-653727191#1 -712245744#1 -564298126#9"/>
    </vehicle>
    <vehicle id="vehicle_61" type="veh_passenger" depart="1211.58" departLane="best" departPos="random" departSpeed="max" color="white" speedFactor="1.1100">
        <route edges="-1392084250 -653727191#1 1054315845#0"/>
    </vehicle>
    <vehicle id="vehicle_276" type="motorcycle_motorcycle" depart="1252.36" departLane="best" departPos="random" departSpeed="max" color="255,165,0" speedFactor="0.8800">
        <route edges="1054315844#0 555020953#0 653727191#0"/>
    </vehicle>
    <vehicle id="vehicle_132" type="bus_bus" depart="1262.52" departLane="best" departPos="random" departSpeed="max" color="red" speedFactor="1.1500">
        <route edges="564298145 -712245744#1 -564298126#9"/>
    </vehicle>
    <vehicle id="vehicle_24" type="veh_passenger" depart="1282.70" departLane="best" departSpeed="max">
        <route edges="1392084244#0 712245744#0 653727191#0"/>
    </vehicle>
    <vehicle id="vehicle_101" type="bus_bus" depart="1282.70" departLane="best" departSpeed="max">
        <route edges="-1392084250 -653727191#1 -712245744#1 -564298126#9 1392084244#0 712245744#0 653727191#0 653727192"/>
    </vehicle>
    <vehicle id="vehicle_172" type="truck_truck" depart="1282.70" departLane="best" departSpeed="max">
        <route edges="-1392084250 -653727191#1 -712245744#1 -564298126#9 1392084244#0 712245744#0 653727191#0 653727192"/>
    </vehicle>
    <vehicle id="vehicle_243" type="motorcycle_motorcycle" depart="1282.70" departLane="best" departSpeed="max">
        <route edges="1392084244#0 712245744#0 653727191#0"/>
    </vehicle>
    <vehicle id="vehicle_277" type="motorcycle_motorcycle" depart="1292.20" departLane="best" departPos="random" departSpeed="max" color="white" speedFactor="1.0500">
        <route edges="564298145 1054315845#0"/>
    </vehicle>
    <vehicle id="vehicle_211" type="truck_truck" depart="1300.19" departLane="best" departPos="random" departSpeed="max" color="white" speedFactor="1.0000">
        <route edges="1392084244#0 712245744#0 653727191#0 653727192"/>
    </vehicle>
    <vehicle id="vehicle_112" type="bus_bus" depart="1304.05" departLane="best" departSpeed="max">
        <route edges="1392084244#0 712245744#0 653727191#0 -653727191#1 -712245744#1 -564298126#9"/>
    </vehicle>
    <vehicle id="vehicle_62" type="veh_passenger" depart="1305.17" departLane="best" departPos="random" departSpeed="max" color="139,69,19" speedFactor="0.8600">
        <route edges="1054315844#0 555020953#0 653727191#0 653727192"/>
    </vehicle>
    <vehicle id="vehicle_133" type="bus_bus" depart="1333.79" departLane="best" departPos="random" departSpeed="max" color="0,128,0" speedFactor="0.9200">
        <route edges="-1392084250 -653727191#1 1054315845#0"/>
    </vehicle>
    <vehicle id="vehicle_63" type="veh_passenger" depart="1341.53" departLane="best" departPos="random" departSpeed="max" color="139,69,19" speedFactor="0.8900">
        <route edges="-1392084250 -653727191#1 -712245744#1"/>
    </vehicle>
    <vehicle id="vehicle_278" type="motorcycle_motorcycle" depart="1343.62" departLane="best" departPos="random" departSpeed="max" color="128,0,128" speedFactor="1.0900">
        <route edges="712245744#0 1326404883"/>
    </vehicle>
    <vehicle id="vehicle_279" type="motorcycle_motorcycle" depart="1359.27" departLane="best" departPos="random" departSpeed="max" color="black" speedFactor="0.9500">
        <route edges="653727191#0 653727192"/>
    </vehicle>
    <vehicle id="vehicle_134" type="bus_bus" depart="1362.40" departLane="best" departPos="random" departSpeed="max" color="blue" speedFactor="0.9900">
        <route edges="-1392084250 -653727191#1 -712245744#1 -564298126#9"/>
    </vehicle>
    <vehicle id="vehicle_64" type="veh_passenger" depart="1375.19" departLane="best" departPos="random" departSpeed="max" color="192,192,192" speedFactor="0.8800">
        <route edges="1054315844#0 555020953#0 1326404883"/>
    </vehicle>
    <vehicle id="vehicle_212" type="truck_truck" depart="1376.58" departLane="best" departPos="random" departSpeed="max" color="red" speedFactor="1.0700">
        <route edges="1392084244#0 712245744#0 653727191#0 653727192"/>
    </vehicle>
    <vehicle id="vehicle_174" type="truck_truck" depart="1389.59" departLane="best" departSpeed="max">
        <route edges="-1392084250 -653727191#1 -712245744#1 -564298126#9 1392084244#0 712245744#0 653727191#0 653727192"/>
    </vehicle>
    <vehicle id="vehicle_213" type="truck_truck" depart="1413.17" departLane="best" departPos="random" departSpeed="max" color="0,128,0" speedFactor="0.9100">
        <route edges="-1392084250 -653727191#1 -712245744#1 -564298126#9"/>
    </vehicle>
    <vehicle id="vehicle_65" type="veh_passenger" depart="1419.66" departLane="best" departPos="random" departSpeed="max" color="139,69,19" speedFactor="0.8700">
        <route edges="564298145 -712245744#1 -564298126#9"/>
    </vehicle>
    <vehicle id="vehicle_30" type="veh_passenger" depart="1425.22" departLane="best" departSpeed="max">
        <route edges="1392084244#0 712245744#0 653727191#0 653727192"/>
    </vehicle>
    <vehicle id="vehicle_135" type="bus_bus" depart="1488.14" departLane="best" departPos="random" departSpeed="max" color="red" speedFactor="0.9600">
        <route edges="1392084244#0 712245744#0 653727191#0 653727192"/>
    </vehicle>
    <vehicle id="vehicle_5" type="veh_passenger" depart="1496.48" departLane="best" departSpeed="max">
        <route edges="1392084244#0 712245744#0 1326404883"/>
    </vehicle>
    <vehicle id="vehicle_102" type="bus_bus" depart="1496.48" departLane="best" departSpeed="max">
        <route edges="1392084244#0 712245744#0 653727191#0 -653727191#1 -712245744#1 -564298126#9"/>
    </vehicle>