<?xml version='1.0' encoding='utf-8'?>
<routes xmlns:xsi="http://www.w3.org/2001/XMLSchema-instance" xsi:noNamespaceSchemaLocation="http://sumo.dlr.de/xsd/routes_file.xsd"><vType id="veh_passenger" vClass="passenger" guiShape="passenger" color="128,128,128" maxSpeed="55.56" accel="2.6" decel="4.5" />
    <trip id="passenger_691798_0" depart="1710.27" from="564298145" to="1054315845#0" departLane="best" type="veh_passenger" departSpeed="max" /><trip id="passenger_691798_1" depart="2707.92" from="1392084244#0" to="653727192" departLane="best" type="veh_passenger" departSpeed="max" /><trip id="passenger_691798_2" depart="570.09" from="1392084244#0" to="653727192" departLane="best" type="veh_passenger" departSpeed="max" /><trip id="passenger_691798_3" depart="1852.79" from="1392084244#0" to="1326404883" departLane="best" type="veh_passenger" departSpeed="max" /><trip id="passenger_691798_4" depart="2422.88" from="-712245744#1" to="-564298126#9" departLane="best" type="veh_passenger" /><trip id="passenger_691798_5" depart="1496.48" from="1392084244#0" to="1326404883" departLane="best" type="veh_passenger" departSpeed="max" /><trip id="passenger_691798_6" depart="1924.05" from="1392084244#0" to="653727192" departLane="best" type="veh_passenger" departSpeed="max" /><trip id="passenger_691798_7" depart="2209.09" from="-1392084250" to="-564298126#9" departLane="best" type="veh_passenger" departSpeed="max" /><trip id="passenger_691798_8" depart="1639.01" from="-1392084250" to="1054315845#0" departLane="best" type="veh_passenger" departSpeed="max" /><trip id="passenger_691798_9" depart="783.87" from="1392084244#0" to="1326404883" departLane="best" type="veh_passenger" departSpeed="max" /><trip id="passenger_691798_10" depart="142.52" from="-1392084250" to="-564298126#9" departLane="best" type="veh_passenger" departSpeed="max" /><trip id="passenger_691798_11" depart="2992.97" from="1054315844#0" to="653727192" departLane="best" type="veh_passenger" departSpeed="max" /><trip id="passenger_691798_12" depart="3135.49" from="564298145" to="1054315845#0" departLane="best" type="veh_passenger" departSpeed="max" /><trip id="passenger_691798_13" depart="0.00" from="1054315844#0" to="1326404883" departLane="best" type="veh_passenger" departSpeed="max" /><trip id="passenger_691798_14" depart="2280.36" from="-1392084250" to="-564298126#9" departLane="best" type="veh_passenger" departSpeed="max" /><trip id="passenger_691798_15" depart="3278.01" from="-1392084250" to="1054315845#0" departLane="best" type="veh_passenger" departSpeed="max" /><trip id="passenger_691798_16" depart="3206.75" from="-1392084250" to="-564298126#9" departLane="best" type="veh_passenger" departSpeed="max" /><trip id="passenger_691798_17" depart="1567.74" from="1392084244#0" to="653727192" departLane="best" type="veh_passenger" departSpeed="max" /><trip id="passenger_691798_18" depart="71.26" from="-1392084250" to="-564298126#9" departLane="best" type="veh_passenger" departSpeed="max" /><trip id="passenger_691798_19" depart="641.35" from="-1392084250" to="1054315845#0" departLane="best" type="veh_passenger" departSpeed="max" /><trip id="passenger_691798_20" depart="2921.71" from="-1392084250" to="1054315845#0" departLane="best" type="veh_passenger" departSpeed="max" /><trip id="passenger_691798_21" depart="2137.83" from="564298145" to="-564298126#9" departLane="best" type="veh_passenger" departSpeed="max" /><trip id="passenger_691798_22" depart="2779.18" from="1054315844#0" to="653727192" departLane="best" type="veh_passenger" departSpeed="max" /><trip id="passenger_691798_23" depart="3563.06" from="1392084244#0" to="653727192" departLane="best" type="veh_passenger" departSpeed="max" /><trip id="passenger_691798_24" depart="1282.70" from="1392084244#0" to="-653727191#1" departLane="best" type="veh_passenger" departSpeed="max" /><trip id="passenger_691798_25" depart="2565.40" from="564298145" to="-564298126#9" departLane="best" type="veh_passenger" departSpeed="max" /><trip id="passenger_691798_26" depart="1995.31" from="564298145" to="1054315845#0" departLane="best" type="veh_passenger" departSpeed="max" /><trip id="passenger_691798_27" depart="356.31" from="-1392084250" to="-564298126#9" departLane="best" type="veh_passenger" departSpeed="max" /><trip id="passenger_691798_28" depart="1781.53" from="1392084244#0" to="653727192" departLane="best" type="veh_passenger" departSpeed="max" /><trip id="passenger_691798_29" depart="3349.27" from="564298145" to="1054315845#0" departLane="best" type="veh_passenger" departSpeed="max" /><trip id="passenger_691798_30" depart="1425.22" from="1392084244#0" to="653727192" departLane="best" type="veh_passenger" departSpeed="max" /><trip id="passenger_691798_31" depart="3420.53" from="653727191#0" to="-564298126#9" departLane="best" type="veh_passenger" /><trip id="passenger_691798_32" depart="3491.79" from="1392084244#0" to="653727192" departLane="best" type="veh_passenger" departSpeed="max" /><trip id="passenger_691798_33" depart="712.61" from="-653727191#1" to="-564298126#9" departLane="best" type="veh_passenger" /><trip id="passenger_691798_34" depart="1068.92" from="-1392084250" to="-564298126#9" departLane="best" type="veh_passenger" departSpeed="max" /><trip id="passenger_691798_35" depart="3064.23" from="1054315844#0" to="1326404883" departLane="best" type="veh_passenger" departSpeed="max" /><trip id="passenger_691798_36" depart="2351.62" from="-1392084250" to="1054315845#0" departLane="best" type="veh_passenger" departSpeed="max" /><trip id="passenger_691798_37" depart="997.66" from="-1392084250" to="-712245744#1" departLane="best" type="veh_passenger" departSpeed="max" /><trip id="passenger_691798_38" depart="1211.44" from="-653727191#1" to="-564298126#9" departLane="best" type="veh_passenger" /><trip id="passenger_691798_39" depart="2850.44" from="-653727191#1" to="1054315845#0" departLane="best" type="veh_passenger" /><trip id="passenger_691798_enh_40" depart="0.00" from="564298145" to="712245744#0" type="veh_passenger" color="0,255,255" departLane="best" departSpeed="max" departPos="random" speedFactor="1.12" /><trip id="passenger_691798_enh_41" depart="0.00" from="564298145" to="-712245744#1" type="veh_passenger" color="255,165,0" departLane="best" departSpeed="max" departPos="random" speedFactor="1.09" /><trip id="passenger_691798_enh_42" depart="0.00" from="1392084244#0" to="712245744#0" type="veh_passenger" color="139,69,19" departLane="best" departSpeed="max" departPos="random" speedFactor="1.02" /><trip id="passenger_691798_enh_43" depart="1.20" from="1392084244#0" to="1054315845#0" type="veh_passenger" color="255,20,147" departLane="best" departSpeed="max" departPos="random" speedFactor="0.89" /><trip id="passenger_691798_enh_44" depart="182.31" from="1392084244#0" to="653727192" type="veh_passenger" color="192,192,192" departLane="best" departSpeed="max" departPos="random" speedFactor="0.9" /><trip id="passenger_691798_enh_45" depart="236.88" from="712245744#0" to="1326404883" type="veh_passenger" color="128,0,128" departLane="best" departSpeed="max" departPos="random" speedFactor="0.97" /><trip id="passenger_691798_enh_46" depart="257.66" from="1392084244#0" to="653727191#0" type="veh_passenger" color="0,255,255" departLane="best" departSpeed="max" departPos="random" speedFactor="1.04" /><trip id="passenger_691798_enh_47" depart="344.60" from="1054315844#0" to="555020953#0" type="veh_passenger" color="255,0,0" departLane="best" departSpeed="max" departPos="random" speedFactor="0.9" /><trip id="passenger_691798_enh_48" depart="453.19" from="-712245744#1" to="-564298126#9" type="veh_passenger" color="0,0,255" departLane="best" departSpeed="max" departPos="random" speedFactor="0.86" /><trip id="passenger_691798_enh_49" depart="456.06" from="653727191#0" to="653727192" type="veh_passenger" color="128,0,128" departLane="best" departSpeed="max" departPos="random" speedFactor="1.01" /><trip id="passenger_691798_enh_50" depart="511.32" from="653727191#0" to="1054315845#0" type="veh_passenger" color="50,205,50" departLane="best" departSpeed="max" departPos="random" speedFactor="0.89" /><trip id="passenger_691798_enh_51" depart="515.67" from="564298145" to="-564298126#9" type="veh_passenger" color="50,205,50" departLane="best" departSpeed="max" departPos="random" speedFactor="1.0" /><trip id="passenger_691798_enh_52" depart="708.27" from="653727191#0" to="653727192" type="veh_passenger" color="255,165,0" departLane="best" departSpeed="max" departPos="random" speedFactor="0.87" /><trip id="passenger_691798_enh_53" depart="710.12" from="564298145" to="653727192" type="veh_passenger" color="128,0,128" departLane="best" departSpeed="max" departPos="random" speedFactor="1.04" /><trip id="passenger_691798_enh_54" depart="778.18" from="712245744#0" to="1326404883" type="veh_passenger" color="128,128,128" departLane="best" departSpeed="max" departPos="random" speedFactor="0.87" /><trip id="passenger_691798_enh_55" depart="881.73" from="1054315844#0" to="-712245744#1" type="veh_passenger" color="139,69,19" departLane="best" departSpeed="max" departPos="random" speedFactor="0.88" /><trip id="passenger_691798_enh_56" depart="882.11" from="-712245744#1" to="653727192" type="veh_passenger" color="0,0,255" departLane="best" departSpeed="max" departPos="random" speedFactor="1.08" /><trip id="passenger_691798_enh_57" depart="936.31" from="1054315844#0" to="712245744#0" type="veh_passenger" color="0,128,0" departLane="best" departSpeed="max" departPos="random" speedFactor="0.95" /><trip id="passenger_691798_enh_58" depart="1048.41" from="712245744#0" to="1054315845#0" type="veh_passenger" color="0,0,0" departLane="best" departSpeed="max" departPos="random" speedFactor="1.11" /><trip id="passenger_691798_enh_59" depart="1049.07" from="1392084244#0" to="1326404883" type="veh_passenger" color="0,0,255" departLane="best" departSpeed="max" departPos="random" speedFactor="0.9" /><trip id="passenger_691798_enh_60" depart="1178.36" from="1392084244#0" to="1326404883" type="veh_passenger" color="139,69,19" departLane="best" departSpeed="max" departPos="random" speedFactor="1.06" /><trip id="passenger_691798_enh_61" depart="1211.58" from="-1392084250" to="1054315845#0" type="veh_passenger" color="255,255,255" departLane="best" departSpeed="max" departPos="random" speedFactor="1.11" /><trip id="passenger_691798_enh_62" depart="1305.17" from="1054315844#0" to="653727192" type="veh_passenger" color="139,69,19" departLane="best" departSpeed="max" departPos="random" speedFactor="0.86" /><trip id="passenger_691798_enh_63" depart="1341.53" from="-1392084250" to="-712245744#1" type="veh_passenger" color="139,69,19" departLane="best" departSpeed="max" departPos="random" speedFactor="0.89" /><trip id="passenger_691798_enh_64" depart="1375.19" from="1054315844#0" to="1326404883" type="veh_passenger" color="192,192,192" departLane="best" departSpeed="max" departPos="random" speedFactor="0.88" /><trip id="passenger_691798_enh_65" depart="1419.66" from="564298145" to="-564298126#9" type="veh_passenger" color="139,69,19" departLane="best" departSpeed="max" departPos="random" speedFactor="0.87" /><trip id="passenger_691798_enh_66" depart="1572.96" from="1054315844#0" to="-653727191#1" type="veh_passenger" color="255,255,255" departLane="best" departSpeed="max" departPos="random" speedFactor="1.09" /><trip id="passenger_691798_enh_67" depart="1574.36" from="-712245744#1" to="-564298126#9" type="veh_passenger" color="0,0,0" departLane="best" departSpeed="max" departPos="random" speedFactor="0.99" /><trip id="passenger_691798_enh_68" depart="1637.74" from="1054315844#0" to="712245744#0" type="veh_passenger" color="255,165,0" departLane="best" departSpeed="max" departPos="random" speedFactor="0.86" /><trip id="passenger_691798_enh_69" depart="1747.98" from="-1392084250" to="1054315845#0" type="veh_passenger" color="255,0,0" departLane="best" departSpeed="max" departPos="random" speedFactor="0.91" /><trip id="passenger_691798_enh_70" depart="1790.79" from="1392084244#0" to="1326404883" type="veh_passenger" color="139,69,19" departLane="best" departSpeed="max" departPos="random" speedFactor="1.02" /><trip id="passenger_691798_enh_71" depart="1833.88" from="712245744#0" to="1326404883" type="veh_passenger" color="128,128,128" departLane="best" departSpeed="max" departPos="random" speedFactor="1.12" /><trip id="passenger_691798_enh_72" depart="1886.82" from="1392084244#0" to="653727192" type="veh_passenger" color="139,69,19" departLane="best" departSpeed="max" departPos="random" speedFactor="1.11" /><trip id="passenger_691798_enh_73" depart="1917.75" from="1392084244#0" to="-653727191#1" type="veh_passenger" color="128,0,128" departLane="best" departSpeed="max" departPos="random" speedFactor="1.09" /><trip id="passenger_691798_enh_74" depart="2091.46" from="1392084244#0" to="712245744#0" type="veh_passenger" color="255,20,147" departLane="best" departSpeed="max" departPos="random" speedFactor="1.03" /><trip id="passenger_691798_enh_75" depart="2099.56" from="564298145" to="1054315845#0" type="veh_passenger" color="255,255,0" departLane="best" departSpeed="max" departPos="random" speedFactor="1.09" /><trip id="passenger_691798_enh_76" depart="2123.92" from="1054315844#0" to="1326404883" type="veh_passenger" color="0,0,0" departLane="best" departSpeed="max" departPos="random" speedFactor="1.12" /><trip id="passenger_691798_enh_77" depart="2237.24" from="1054315844#0" to="555020953#0" type="veh_passenger" color="50,205,50" departLane="best" departSpeed="max" departPos="random" speedFactor="1.14" /><trip id="passenger_691798_enh_78" depart="2262.11" from="555020953#0" to="653727192" type="veh_passenger" color="192,192,192" departLane="best" departSpeed="max" departPos="random" speedFactor="0.96" /><trip id="passenger_691798_enh_79" depart="2365.13" from="1054315844#0" to="653727191#0" type="veh_passenger" color="128,128,128" departLane="best" departSpeed="max" departPos="random" speedFactor="1.06" /><trip id="passenger_691798_enh_80" depart="2374.35" from="1054315844#0" to="-653727191#1" type="veh_passenger" color="0,255,255" departLane="best" departSpeed="max" departPos="random" speedFactor="1.09" /><trip id="passenger_691798_enh_81" depart="2444.05" from="1054315844#0" to="712245744#0" type="veh_passenger" color="255,20,147" departLane="best" departSpeed="max" departPos="random" speedFactor="1.1" /><trip id="passenger_691798_enh_82" depart="2583.26" from="-1392084250" to="-564298126#9" type="veh_passenger" color="255,255,255" departLane="best" departSpeed="max" departPos="random" speedFactor="0.96" /><trip id="passenger_691798_enh_83" depart="2607.21" from="653727191#0" to="-564298126#9" type="veh_passenger" color="0,0,0" departLane="best" departSpeed="max" departPos="random" speedFactor="1.05" /><trip id="passenger_691798_enh_84" depart="2648.69" from="564298145" to="1054315845#0" type="veh_passenger" color="128,128,128" departLane="best" departSpeed="max" departPos="random" speedFactor="0.97" /><trip id="passenger_691798_enh_85" depart="2661.60" from="-1392084250" to="1054315845#0" type="veh_passenger" color="255,165,0" departLane="best" departSpeed="max" departPos="random" speedFactor="1.05" /><trip id="passenger_691798_enh_86" depart="2781.39" from="564298145" to="1054315845#0" type="veh_passenger" color="50,205,50" departLane="best" departSpeed="max" departPos="random" speedFactor="1.03" /><trip id="passenger_691798_enh_87" depart="2815.34" from="564298145" to="-564298126#9" type="veh_passenger" color="0,128,0" departLane="best" departSpeed="max" departPos="random" speedFactor="0.99" /><trip id="passenger_691798_enh_88" depart="2898.53" from="-1392084250" to="-564298126#9" type="veh_passenger" color="50,205,50" departLane="best" departSpeed="max" departPos="random" speedFactor="1.02" /><trip id="passenger_691798_enh_89" depart="2967.84" from="1392084244#0" to="653727192" type="veh_passenger" color="255,255,255" departLane="best" departSpeed="max" departPos="random" speedFactor="0.97" /><trip id="passenger_691798_enh_90" depart="3055.64" from="712245744#0" to="653727192" type="veh_passenger" color="128,0,128" departLane="best" departSpeed="max" departPos="random" speedFactor="0.97" /><trip id="passenger_691798_enh_91" depart="3103.56" from="564298145" to="-564298126#9" type="veh_passenger" color="0,0,255" departLane="best" departSpeed="max" departPos="random" speedFactor="0.96" /><trip id="passenger_691798_enh_92" depart="3126.17" from="-1392084250" to="1054315845#0" type="veh_passenger" color="255,165,0" departLane="best" departSpeed="max" departPos="random" speedFactor="0.97" /><trip id="passenger_691798_enh_93" depart="3154.80" from="1054315844#0" to="1326404883" type="veh_passenger" color="255,20,147" departLane="best" departSpeed="max" departPos="random" speedFactor="0.98" /><trip id="passenger_691798_enh_94" depart="3293.23" from="-1392084250" to="1054315845#0" type="veh_passenger" color="139,69,19" departLane="best" departSpeed="max" departPos="random" speedFactor="0.95" /><trip id="passenger_691798_enh_95" depart="3312.28" from="-1392084250" to="1054315845#0" type="veh_passenger" color="255,255,255" departLane="best" departSpeed="max" departPos="random" speedFactor="1.14" /><trip id="passenger_691798_enh_96" depart="3443.33" from="-1392084250" to="-564298126#9" type="veh_passenger" color="255,255,255" departLane="best" departSpeed="max" departPos="random" speedFactor="0.89" /><trip id="passenger_691798_enh_97" depart="3487.78" from="564298145" to="-564298126#9" type="veh_passenger" color="128,128,128" departLane="best" departSpeed="max" departPos="random" speedFactor="0.88" /><trip id="passenger_691798_enh_98" depart="3543.32" from="564298145" to="-564298126#9" type="veh_passenger" color="0,128,0" departLane="best" departSpeed="max" departPos="random" speedFactor="1.0" /><trip id="passenger_691798_enh_99" depart="3544.00" from="1392084244#0" to="653727192" type="veh_passenger" color="0,0,255" departLane="best" departSpeed="max" departPos="random" speedFactor="1.05" /></routes>