<?xml version='1.0' encoding='utf-8'?>
<routes xmlns:xsi="http://www.w3.org/2001/XMLSchema-instance" xsi:noNamespaceSchemaLocation="http://sumo.dlr.de/xsd/routes_file.xsd"><vType id="motorcycle_motorcycle" vClass="motorcycle" guiShape="motorcycle" color="255,0,0" maxSpeed="50.0" length="2.5" />
    <trip id="motorcycle_698834_0" depart="0.00" from="-1392084250" to="653727191#0" departLane="best" type="motorcycle_motorcycle" departSpeed="max" /><trip id="motorcycle_698834_1" depart="2137.83" from="1392084244#0" to="1326404883" departLane="best" type="motorcycle_motorcycle" departSpeed="max" /><trip id="motorcycle_698834_2" depart="1282.70" from="1392084244#0" to="653727191#0" departLane="best" type="motorcycle_motorcycle" departSpeed="max" /><trip id="motorcycle_698834_3" depart="2992.97" from="-1392084250" to="712245744#0" departLane="best" type="motorcycle_motorcycle" departSpeed="max" /><trip id="motorcycle_698834_4" depart="641.35" from="1054315844#0" to="1326404883" departLane="best" type="motorcycle_motorcycle" departSpeed="max" /><trip id="motorcycle_698834_5" depart="427.57" from="555020953#0" to="653727192" departLane="best" type="motorcycle_motorcycle" /><trip id="motorcycle_698834_6" depart="1496.48" from="1054315844#0" to="-653727191#1" departLane="best" type="motorcycle_motorcycle" departSpeed="max" /><trip id="motorcycle_698834_7" depart="3420.53" from="653727191#0" to="1326404883" departLane="best" type="motorcycle_motorcycle" /><trip id="motorcycle_698834_8" depart="855.13" from="-1392084250" to="1054315845#0" departLane="best" type="motorcycle_motorcycle" departSpeed="max" /><trip id="motorcycle_698834_9" depart="2565.40" from="1392084244#0" to="1326404883" departLane="best" type="motorcycle_motorcycle" departSpeed="max" /><trip id="motorcycle_698834_10" depart="2779.18" from="1054315844#0" to="-564298126#9" departLane="best" type="motorcycle_motorcycle" departSpeed="max" /><trip id="motorcycle_698834_11" depart="1068.92" from="1054315844#0" to="653727192" departLane="best" type="motorcycle_motorcycle" departSpeed="max" /><trip id="motorcycle_698834_12" depart="3206.75" from="564298145" to="-712245744#1" departLane="best" type="motorcycle_motorcycle" departSpeed="max" /><trip id="motorcycle_698834_enh_13" depart="0.00" from="-1392084250" to="1326404883" type="motorcycle_motorcycle" color="128,0,128" departLane="best" departSpeed="max" departPos="random" speedFactor="1.09" /><trip id="motorcycle_698834_enh_14" depart="0.00" from="564298145" to="1054315845#0" type="motorcycle_motorcycle" color="0,0,0" departLane="best" departSpeed="max" departPos="random" speedFactor="0.87" /><trip id="motorcycle_698834_enh_15" depart="0.00" from="-1392084250" to="-712245744#1" type="motorcycle_motorcycle" color="255,165,0" departLane="best" departSpeed="max" departPos="random" speedFactor="0.97" /><trip id="motorcycle_698834_enh_16" depart="8.57" from="712245744#0" to="653727191#0" type="motorcycle_motorcycle" color="255,255,255" departLane="best" departSpeed="max" departPos="random" speedFactor="0.9" /><trip id="motorcycle_698834_enh_17" depart="163.91" from="-1392084250" to="712245744#0" type="motorcycle_motorcycle" color="255,255,0" departLane="best" departSpeed="max" departPos="random" speedFactor="0.86" /><trip id="motorcycle_698834_enh_18" depart="229.68" from="-653727191#1" to="1054315845#0" type="motorcycle_motorcycle" color="128,0,128" departLane="best" departSpeed="max" departPos="random" speedFactor="1.01" /><trip id="motorcycle_698834_enh_19" depart="247.10" from="1054315844#0" to="-653727191#1" type="motorcycle_motorcycle" color="0,0,0" departLane="best" departSpeed="max" departPos="random" speedFactor="0.99" /><trip id="motorcycle_698834_enh_20" depart="323.68" from="1392084244#0" to="1326404883" type="motorcycle_motorcycle" color="128,0,128" departLane="best" departSpeed="max" departPos="random" speedFactor="0.96" /><trip id="motorcycle_698834_enh_21" depart="434.25" from="564298145" to="712245744#0" type="motorcycle_motorcycle" color="0,0,255" departLane="best" departSpeed="max" departPos="random" speedFactor="1.05" /><trip id="motorcycle_698834_enh_22" depart="446.45" from="555020953#0" to="1054315845#0" type="motorcycle_motorcycle" color="255,255,0" departLane="best" departSpeed="max" departPos="random" speedFactor="0.89" /><trip id="motorcycle_698834_enh_23" depart="494.54" from="-1392084250" to="653727191#0" type="motorcycle_motorcycle" color="0,0,255" departLane="best" departSpeed="max" departPos="random" speedFactor="0.9" /><trip id="motorcycle_698834_enh_24" depart="513.68" from="653727191#0" to="1054315845#0" type="motorcycle_motorcycle" color="255,165,0" departLane="best" departSpeed="max" departPos="random" speedFactor="0.95" /><trip id="motorcycle_698834_enh_25" depart="679.08" from="1054315844#0" to="-564298126#9" type="motorcycle_motorcycle" color="0,0,0" departLane="best" departSpeed="max" departPos="random" speedFactor="1.11" /><trip id="motorcycle_698834_enh_26" depart="680.57" from="555020953#0" to="1054315845#0" type="motorcycle_motorcycle" color="255,255,0" departLane="best" departSpeed="max" departPos="random" speedFactor="0.9" /><trip id="motorcycle_698834_enh_27" depart="746.49" from="712245744#0" to="653727192" type="motorcycle_motorcycle" color="255,0,0" departLane="best" departSpeed="max" departPos="random" speedFactor="1.11" /><trip id="motorcycle_698834_enh_28" depart="840.59" from="653727191#0" to="653727192" type="motorcycle_motorcycle" color="255,0,0" departLane="best" departSpeed="max" departPos="random" speedFactor="0.96" /><trip id="motorcycle_698834_enh_29" depart="865.72" from="653727191#0" to="1054315845#0" type="motorcycle_motorcycle" color="0,0,0" departLane="best" departSpeed="max" departPos="random" speedFactor="0.91" /><trip id="motorcycle_698834_enh_30" depart="910.96" from="1054315844#0" to="1326404883" type="motorcycle_motorcycle" color="0,0,255" departLane="best" departSpeed="max" departPos="random" speedFactor="0.88" /><trip id="motorcycle_698834_enh_31" depart="996.15" from="712245744#0" to="-564298126#9" type="motorcycle_motorcycle" color="255,0,0" departLane="best" departSpeed="max" departPos="random" speedFactor="0.98" /><trip id="motorcycle_698834_enh_32" depart="1006.16" from="-712245744#1" to="653727192" type="motorcycle_motorcycle" color="0,0,0" departLane="best" departSpeed="max" departPos="random" speedFactor="0.99" /><trip id="motorcycle_698834_enh_33" depart="1119.62" from="653727191#0" to="1326404883" type="motorcycle_motorcycle" color="255,0,0" departLane="best" departSpeed="max" departPos="random" speedFactor="0.9" /><trip id="motorcycle_698834_enh_34" depart="1152.80" from="-653727191#1" to="653727192" type="motorcycle_motorcycle" color="0,0,0" departLane="best" departSpeed="max" departPos="random" speedFactor="1.08" /><trip id="motorcycle_698834_enh_35" depart="1252.36" from="1054315844#0" to="-653727191#1" type="motorcycle_motorcycle" color="255,165,0" departLane="best" departSpeed="max" departPos="random" speedFactor="0.88" /><trip id="motorcycle_698834_enh_36" depart="1292.20" from="564298145" to="1054315845#0" type="motorcycle_motorcycle" color="255,255,255" departLane="best" departSpeed="max" departPos="random" speedFactor="1.05" /><trip id="motorcycle_698834_enh_37" depart="1343.62" from="-712245744#1" to="1326404883" type="motorcycle_motorcycle" color="128,0,128" departLane="best" departSpeed="max" departPos="random" speedFactor="1.09" /><trip id="motorcycle_698834_enh_38" depart="1359.27" from="653727191#0" to="653727192" type="motorcycle_motorcycle" color="0,0,0" departLane="best" departSpeed="max" departPos="random" speedFactor="0.95" /><trip id="motorcycle_698834_enh_39" depart="1504.60" from="1054315844#0" to="653727191#0" type="motorcycle_motorcycle" color="0,0,0" departLane="best" departSpeed="max" departPos="random" speedFactor="1.12" /><trip id="motorcycle_698834_enh_40" depart="1510.98" from="712245744#0" to="653727192" type="motorcycle_motorcycle" color="0,128,0" departLane="best" departSpeed="max" departPos="random" speedFactor="0.9" /><trip id="motorcycle_698834_enh_41" depart="1586.95" from="1392084244#0" to="1054315845#0" type="motorcycle_motorcycle" color="255,0,0" departLane="best" departSpeed="max" departPos="random" speedFactor="1.07" /><trip id="motorcycle_698834_enh_42" depart="1674.51" from="-653727191#1" to="653727192" type="motorcycle_motorcycle" color="0,128,0" departLane="best" departSpeed="max" departPos="random" speedFactor="1.08" /><trip id="motorcycle_698834_enh_43" depart="1721.34" from="-653727191#1" to="1054315845#0" type="motorcycle_motorcycle" color="255,165,0" departLane="best" departSpeed="max" departPos="random" speedFactor="0.86" /><trip id="motorcycle_698834_enh_44" depart="1759.95" from="1392084244#0" to="-712245744#1" type="motorcycle_motorcycle" color="0,0,0" departLane="best" departSpeed="max" departPos="random" speedFactor="1.05" /><trip id="motorcycle_698834_enh_45" depart="1818.74" from="653727191#0" to="-564298126#9" type="motorcycle_motorcycle" color="0,0,255" departLane="best" departSpeed="max" departPos="random" speedFactor="0.97" /><trip id="motorcycle_698834_enh_46" depart="1841.27" from="1054315844#0" to="-653727191#1" type="motorcycle_motorcycle" color="128,0,128" departLane="best" departSpeed="max" departPos="random" speedFactor="0.97" /><trip id="motorcycle_698834_enh_47" depart="2002.59" from="-1392084250" to="712245744#0" type="motorcycle_motorcycle" color="255,255,255" departLane="best" departSpeed="max" departPos="random" speedFactor="1.11" /><trip id="motorcycle_698834_enh_48" depart="2015.07" from="-1392084250" to="1326404883" type="motorcycle_motorcycle" color="255,0,0" departLane="best" departSpeed="max" departPos="random" speedFactor="0.97" /><trip id="motorcycle_698834_enh_49" depart="2027.45" from="1392084244#0" to="653727192" type="motorcycle_motorcycle" color="128,0,128" departLane="best" departSpeed="max" departPos="random" speedFactor="0.97" /><trip id="motorcycle_698834_enh_50" depart="2127.91" from="712245744#0" to="1326404883" type="motorcycle_motorcycle" color="255,255,0" departLane="best" departSpeed="max" departPos="random" speedFactor="0.96" /><trip id="motorcycle_698834_enh_51" depart="2179.96" from="1054315844#0" to="-712245744#1" type="motorcycle_motorcycle" color="255,165,0" departLane="best" departSpeed="max" departPos="random" speedFactor="0.87" /><trip id="motorcycle_698834_enh_52" depart="2250.11" from="-653727191#1" to="1054315845#0" type="motorcycle_motorcycle" color="128,0,128" departLane="best" departSpeed="max" departPos="random" speedFactor="0.88" /><trip id="motorcycle_698834_enh_53" depart="2279.30" from="1054315844#0" to="712245744#0" type="motorcycle_motorcycle" color="0,128,0" departLane="best" departSpeed="max" departPos="random" speedFactor="0.9" /><trip id="motorcycle_698834_enh_54" depart="2341.37" from="712245744#0" to="-564298126#9" type="motorcycle_motorcycle" color="255,0,0" departLane="best" departSpeed="max" departPos="random" speedFactor="0.89" /><trip id="motorcycle_698834_enh_55" depart="2480.99" from="-1392084250" to="1326404883" type="motorcycle_motorcycle" color="0,0,255" departLane="best" departSpeed="max" departPos="random" speedFactor="0.88" /><trip id="motorcycle_698834_enh_56" depart="2503.40" from="-1392084250" to="-712245744#1" type="motorcycle_motorcycle" color="255,165,0" departLane="best" departSpeed="max" departPos="random" speedFactor="1.0" /><trip id="motorcycle_698834_enh_57" depart="2543.07" from="-1392084250" to="1054315845#0" type="motorcycle_motorcycle" color="255,255,0" departLane="best" departSpeed="max" departPos="random" speedFactor="1.05" /><trip id="motorcycle_698834_enh_58" depart="2552.08" from="-712245744#1" to="1054315845#0" type="motorcycle_motorcycle" color="0,0,255" departLane="best" departSpeed="max" departPos="random" speedFactor="1.07" /><trip id="motorcycle_698834_enh_59" depart="2682.90" from="712245744#0" to="-564298126#9" type="motorcycle_motorcycle" color="0,128,0" departLane="best" departSpeed="max" departPos="random" speedFactor="1.15" /><trip id="motorcycle_698834_enh_60" depart="2709.16" from="1392084244#0" to="712245744#0" type="motorcycle_motorcycle" color="255,255,0" departLane="best" departSpeed="max" departPos="random" speedFactor="1.09" /><trip id="motorcycle_698834_enh_61" depart="2782.35" from="564298145" to="-712245744#1" type="motorcycle_motorcycle" color="0,0,0" departLane="best" departSpeed="max" departPos="random" speedFactor="0.87" /><trip id="motorcycle_698834_enh_62" depart="2834.29" from="555020953#0" to="1054315845#0" type="motorcycle_motorcycle" color="128,0,128" departLane="best" departSpeed="max" departPos="random" speedFactor="0.91" /><trip id="motorcycle_698834_enh_63" depart="2949.75" from="1392084244#0" to="1326404883" type="motorcycle_motorcycle" color="128,0,128" departLane="best" departSpeed="max" departPos="random" speedFactor="1.05" /><trip id="motorcycle_698834_enh_64" depart="2974.04" from="1392084244#0" to="653727191#0" type="motorcycle_motorcycle" color="128,0,128" departLane="best" departSpeed="max" departPos="random" speedFactor="0.98" /><trip id="motorcycle_698834_enh_65" depart="3013.45" from="555020953#0" to="1054315845#0" type="motorcycle_motorcycle" color="255,255,0" departLane="best" departSpeed="max" departPos="random" speedFactor="0.96" /><trip id="motorcycle_698834_enh_66" depart="3028.06" from="-1392084250" to="-564298126#9" type="motorcycle_motorcycle" color="0,128,0" departLane="best" departSpeed="max" departPos="random" speedFactor="1.01" /><trip id="motorcycle_698834_enh_67" depart="3161.83" from="-1392084250" to="-564298126#9" type="motorcycle_motorcycle" color="0,0,0" departLane="best" departSpeed="max" departPos="random" speedFactor="0.94" /><trip id="motorcycle_698834_enh_68" depart="3181.99" from="-653727191#1" to="1054315845#0" type="motorcycle_motorcycle" color="255,0,0" departLane="best" departSpeed="max" departPos="random" speedFactor="0.86" /><trip id="motorcycle_698834_enh_69" depart="3306.03" from="-712245744#1" to="-564298126#9" type="motorcycle_motorcycle" color="255,165,0" departLane="best" departSpeed="max" departPos="random" speedFactor="0.99" /><trip id="motorcycle_698834_enh_70" depart="3336.98" from="1054315844#0" to="653727192" type="motorcycle_motorcycle" color="0,0,255" departLane="best" departSpeed="max" departPos="random" speedFactor="1.0" /><trip id="motorcycle_698834_enh_71" depart="3399.79" from="1054315844#0" to="1326404883" type="motorcycle_motorcycle" color="255,165,0" departLane="best" departSpeed="max" departPos="random" speedFactor="1.07" /><trip id="motorcycle_698834_enh_72" depart="3401.29" from="653727191#0" to="-564298126#9" type="motorcycle_motorcycle" color="0,0,255" departLane="best" departSpeed="max" departPos="random" speedFactor="0.94" /><trip id="motorcycle_698834_enh_73" depart="3503.94" from="-1392084250" to="-564298126#9" type="motorcycle_motorcycle" color="255,165,0" departLane="best" departSpeed="max" departPos="random" speedFactor="1.04" /><trip id="motorcycle_698834_enh_74" depart="3543.20" from="1054315844#0" to="1326404883" type="motorcycle_motorcycle" color="0,128,0" departLane="best" departSpeed="max" departPos="random" speedFactor="0.96" /></routes>