<?xml version="1.0" encoding="UTF-8"?>

<!-- generated on 2025-10-20 17:24:07.225319 by randomTrips.py v1_24_0+0000-b72eb3fabc8
<configuration>
    <net-file value="osm.net.xml.gz"/>
    <output-trip-file value="osm.bus.trips.xml"/>
    <route-file value="osm.bus.rou.xml"/>
    <prefix value="bus"/>
    <vehicle-class value="bus"/>
    <fringe-factor value="10"/>
    <min-distance value="200.0"/>
    <insertion-density value="4.0"/>
</configuration>
-->

<routes xmlns:xsi="http://www.w3.org/2001/XMLSchema-instance" xsi:noNamespaceSchemaLocation="http://sumo.dlr.de/xsd/routes_file.xsd">
    <vType id="bus_bus" vClass="bus"/>
    <trip id="bus0" depart="0.00" from="555020953#0" to="1326404883" type="bus_bus"/>
    <trip id="bus1" depart="213.70" from="564298145" to="-564298126#9" type="bus_bus"/>
    <trip id="bus2" depart="427.40" from="-1392084250" to="-564298126#9" type="bus_bus"/>
    <trip id="bus3" depart="641.09" from="1392084244#0" to="1326404883" type="bus_bus"/>
    <trip id="bus4" depart="854.79" from="564298145" to="-564298126#9" type="bus_bus"/>
    <trip id="bus5" depart="1068.49" from="564298145" to="1054315845#0" type="bus_bus"/>
    <trip id="bus6" depart="1282.19" from="-1392084250" to="-564298126#9" type="bus_bus"/>
    <trip id="bus7" depart="1495.89" from="1392084244#0" to="653727191#0" type="bus_bus"/>
    <trip id="bus8" depart="1709.58" from="1054315844#0" to="1326404883" type="bus_bus"/>
    <trip id="bus9" depart="1923.28" from="-1392084250" to="1054315845#0" type="bus_bus"/>
    <trip id="bus10" depart="2136.98" from="-1392084250" to="-712245744#1" type="bus_bus"/>
    <trip id="bus11" depart="2350.68" from="-1392084250" to="1054315845#0" type="bus_bus"/>
    <trip id="bus12" depart="2564.38" from="1054315844#0" to="653727191#0" type="bus_bus"/>
    <trip id="bus13" depart="2778.07" from="1392084244#0" to="1326404883" type="bus_bus"/>
    <trip id="bus14" depart="2991.77" from="-1392084250" to="1054315845#0" type="bus_bus"/>
    <trip id="bus15" depart="3205.47" from="712245744#0" to="1326404883" type="bus_bus"/>
    <trip id="bus16" depart="3419.17" from="1392084244#0" to="1326404883" type="bus_bus"/>
</routes>
