<?xml version="1.0" encoding="UTF-8"?>

<!-- generated on 2025-09-03 01:04:13 by Eclipse SUMO duarouter Version 1.24.0
<duarouterConfiguration xmlns:xsi="http://www.w3.org/2001/XMLSchema-instance" xsi:noNamespaceSchemaLocation="http://sumo.dlr.de/xsd/duarouterConfiguration.xsd">

    <input>
        <net-file value="C:\Users\kgaqu\OneDrive\Documents\4th Year\Capstone 2\v10\backend\networks\st_dominic_area\st_dominic_area.net.xml"/>
        <route-files value="C:\Users\kgaqu\OneDrive\Documents\4th Year\Capstone 2\v10\backend\networks\st_dominic_area\routes\osm.bus.trips.xml"/>
    </input>

    <output>
        <output-file value="C:\Users\kgaqu\OneDrive\Documents\4th Year\Capstone 2\v10\backend\networks\st_dominic_area\routes\osm.bus.rou.xml"/>
    </output>

    <report>
        <ignore-errors value="true"/>
    </report>

</duarouterConfiguration>
-->

<routes xmlns:xsi="http://www.w3.org/2001/XMLSchema-instance" xsi:noNamespaceSchemaLocation="http://sumo.dlr.de/xsd/routes_file.xsd">
    <vType id="bus_bus" vClass="bus"/>
    <vehicle id="bus0" type="bus_bus" depart="0.00" departLane="best" departSpeed="max">
        <route edges="1054315844#0 555020953#0 1326404883 564298119#0 657808646"/>
    </vehicle>
    <vehicle id="bus1" type="bus_bus" depart="91.58" departLane="best" departSpeed="max">
        <route edges="1392084253 712245744#0 1326404883 564298119#0 657808646"/>
    </vehicle>
    <vehicle id="bus2" type="bus_bus" depart="183.16" departLane="best" departSpeed="max">
        <route edges="1392084253 712245744#0 653727191#0 653727192"/>
    </vehicle>
    <vehicle id="bus3" type="bus_bus" depart="274.73" departLane="best" departSpeed="max">
        <route edges="564298145#0 922415126 1054315845#0"/>
    </vehicle>
    <vehicle id="bus4" type="bus_bus" depart="366.31" departLane="best" departSpeed="max">
        <route edges="1392084253 712245744#0 1326404883 564298119#0 657808646"/>
    </vehicle>
    <vehicle id="bus5" type="bus_bus" depart="457.89" departLane="best">
        <route edges="653727191#0 -653727191#1 1054315845#0"/>
    </vehicle>
    <vehicle id="bus6" type="bus_bus" depart="549.47" departLane="best" departSpeed="max">
        <route edges="1392084253 712245744#0 653727191#0 653727192"/>
    </vehicle>
    <vehicle id="bus7" type="bus_bus" depart="641.05" departLane="best" departSpeed="max">
        <route edges="564298145#0 922415126 -712245744#1 -564298126#9"/>
    </vehicle>
    <vehicle id="bus8" type="bus_bus" depart="732.63" departLane="best" departSpeed="max">
        <route edges="564298145#0 922415126 -712245744#1 -564298126#9"/>
    </vehicle>
    <vehicle id="bus9" type="bus_bus" depart="824.20" departLane="best" departSpeed="max">
        <route edges="-560538898#1 -653727191#1 -712245744#1 -564298126#9"/>
    </vehicle>
    <vehicle id="bus10" type="bus_bus" depart="915.78" departLane="best" departSpeed="max">
        <route edges="1054315844#0 555020953#0 653727191#0 653727192"/>
    </vehicle>
    <vehicle id="bus11" type="bus_bus" depart="1007.36" departLane="best" departSpeed="max">
        <route edges="564298145#0 922415126 1054315845#0"/>
    </vehicle>
    <vehicle id="bus12" type="bus_bus" depart="1098.94" departLane="best" departSpeed="max">
        <route edges="1054315844#0 555020953#0 653727191#0 653727192"/>
    </vehicle>
    <vehicle id="bus13" type="bus_bus" depart="1190.52" departLane="best" departSpeed="max">
        <route edges="1392084253 712245744#0 1326404883 564298119#0 657808646"/>
    </vehicle>
    <vehicle id="bus14" type="bus_bus" depart="1282.09" departLane="best" departSpeed="max">
        <route edges="-560538898#1 -653727191#1 -712245744#1 -564298126#9"/>
    </vehicle>
    <vehicle id="bus15" type="bus_bus" depart="1373.67" departLane="best" departSpeed="max">
        <route edges="1392084253 712245744#0 653727191#0 653727192"/>
    </vehicle>
    <vehicle id="bus16" type="bus_bus" depart="1465.25" departLane="best" departSpeed="max">
        <route edges="1392084253 712245744#0 1326404883 564298119#0 657808646"/>
    </vehicle>
    <vehicle id="bus17" type="bus_bus" depart="1556.83" departLane="best" departSpeed="max">
        <route edges="-560538898#1 -653727191#1 -712245744#1 -564298126#9"/>
    </vehicle>
    <vehicle id="bus18" type="bus_bus" depart="1648.41" departLane="best" departSpeed="max">
        <route edges="1392084253 712245744#0 653727191#0 653727192"/>
    </vehicle>
    <vehicle id="bus19" type="bus_bus" depart="1739.99" departLane="best" departSpeed="max">
        <route edges="1054315844#0 555020953#0 653727191#0 653727192"/>
    </vehicle>
    <vehicle id="bus20" type="bus_bus" depart="1831.56" departLane="best" departSpeed="max">
        <route edges="1054315844#0 555020953#0 653727191#0 653727192"/>
    </vehicle>
    <vehicle id="bus21" type="bus_bus" depart="1923.14" departLane="best">
        <route edges="555020953#0 1054315845#0"/>
    </vehicle>
    <vehicle id="bus22" type="bus_bus" depart="2014.72" departLane="best" departSpeed="max">
        <route edges="1392084253 712245744#0 1326404883 564298119#0 657808646"/>
    </vehicle>
    <vehicle id="bus23" type="bus_bus" depart="2106.30" departLane="best" departSpeed="max">
        <route edges="1392084253 712245744#0 653727191#0 653727192"/>
    </vehicle>
    <vehicle id="bus24" type="bus_bus" depart="2197.88" departLane="best" departSpeed="max">
        <route edges="1392084253 712245744#0 653727191#0 653727192"/>
    </vehicle>
    <vehicle id="bus25" type="bus_bus" depart="2289.45" departLane="best" departSpeed="max">
        <route edges="1392084253 712245744#0 1326404883 564298119#0 657808646"/>
    </vehicle>
    <vehicle id="bus26" type="bus_bus" depart="2381.03" departLane="best" departSpeed="max">
        <route edges="1054315844#0 555020953#0"/>
    </vehicle>
    <vehicle id="bus27" type="bus_bus" depart="2472.61" departLane="best" departSpeed="max">
        <route edges="1054315844#0 555020953#0 1326404883"/>
    </vehicle>
    <vehicle id="bus28" type="bus_bus" depart="2564.19" departLane="best" departSpeed="max">
        <route edges="564298145#0 922415126 1054315845#0"/>
    </vehicle>
    <vehicle id="bus29" type="bus_bus" depart="2655.77" departLane="best" departSpeed="max">
        <route edges="1054315844#0 555020953#0 1326404883 564298119#0 657808646"/>
    </vehicle>
    <vehicle id="bus30" type="bus_bus" depart="2747.34" departLane="best" departSpeed="max">
        <route edges="1054315844#0 555020953#0 1326404883 564298119#0 657808646"/>
    </vehicle>
    <vehicle id="bus31" type="bus_bus" depart="2838.92" departLane="best" departSpeed="max">
        <route edges="1392084253 712245744#0 653727191#0 653727192"/>
    </vehicle>
    <vehicle id="bus32" type="bus_bus" depart="2930.50" departLane="best">
        <route edges="653727191#0 -653727191#1 1054315845#0"/>
    </vehicle>
    <vehicle id="bus33" type="bus_bus" depart="3022.08" departLane="best" departSpeed="max">
        <route edges="1392084253 712245744#0 1326404883 564298119#0 657808646"/>
    </vehicle>
    <vehicle id="bus34" type="bus_bus" depart="3113.66" departLane="best">
        <route edges="-653727191#1 1054315845#0"/>
    </vehicle>
    <vehicle id="bus35" type="bus_bus" depart="3205.24" departLane="best" departSpeed="max">
        <route edges="564298145#0 922415126 1054315845#0"/>
    </vehicle>
    <vehicle id="bus36" type="bus_bus" depart="3296.81" departLane="best" departSpeed="max">
        <route edges="564298145#0 922415126 1054315845#0"/>
    </vehicle>
    <vehicle id="bus37" type="bus_bus" depart="3388.39" departLane="best" departSpeed="max">
        <route edges="1392084253 712245744#0 653727191#0 653727192"/>
    </vehicle>
    <vehicle id="bus38" type="bus_bus" depart="3479.97" departLane="best" departSpeed="max">
        <route edges="1392084253 712245744#0 1326404883 564298119#0 657808646"/>
    </vehicle>
    <vehicle id="bus39" type="bus_bus" depart="3571.55" departLane="best" departSpeed="max">
        <route edges="1054315844#0 555020953#0 653727191#0 653727192"/>
    </vehicle>
</routes>
