<?xml version="1.0" encoding="UTF-8"?>

<!-- generated on 2025-10-02 19:16:46.272087 by randomTrips.py v1_24_0+0000-b72eb3fabc8
<configuration>
    <net-file value="osm.net.xml.gz"/>
    <output-trip-file value="osm.passenger.trips.xml"/>
    <route-file value="osm.passenger.rou.xml"/>
    <prefix value="veh"/>
    <trip-attributes value="departLane=&quot;best&quot;"/>
    <fringe-start-attributes value="departSpeed=&quot;max&quot;"/>
    <vehicle-class value="passenger"/>
    <lanes value="True"/>
    <fringe-factor value="5"/>
    <allow-fringe.min-length value="1000.0"/>
    <edge-permission value="passenger"/>
    <via-edge-types value="highway.motorway,highway.motorway_link,highway.trunk_link,highway.primary_link,highway.secondary_link,highway.tertiary_link"/>
    <seed value="44"/>
    <min-distance value="300.0"/>
    <min-distance.fringe value="10.0"/>
    <remove-loops value="True"/>
    <insertion-density value="12.0"/>
</configuration>
-->

<routes xmlns:xsi="http://www.w3.org/2001/XMLSchema-instance" xsi:noNamespaceSchemaLocation="http://sumo.dlr.de/xsd/routes_file.xsd">
    <vType id="veh_passenger" vClass="passenger"/>
    <trip id="veh0" depart="0.00" from="1054315844#0" to="1326404883" departLane="best" type="veh_passenger" departSpeed="max"/>
    <trip id="veh1" depart="71.23" from="-1392084250" to="-564298126#9" departLane="best" type="veh_passenger" departSpeed="max"/>
    <trip id="veh2" depart="142.47" from="-1392084250" to="-564298126#9" departLane="best" type="veh_passenger" departSpeed="max"/>
    <trip id="veh3" depart="213.70" from="1054315844#0" to="1326404883" departLane="best" type="veh_passenger" departSpeed="max"/>
    <trip id="veh4" depart="284.93" from="-1392084250" to="-564298126#9" departLane="best" type="veh_passenger" departSpeed="max"/>
    <trip id="veh5" depart="356.16" from="1392084244#0" to="712245744#0" departLane="best" type="veh_passenger" departSpeed="max"/>
    <trip id="veh6" depart="427.40" from="-1392084250" to="1054315845#0" departLane="best" type="veh_passenger" departSpeed="max"/>
    <trip id="veh7" depart="498.63" from="1392084244#0" to="653727191#0" departLane="best" type="veh_passenger" departSpeed="max"/>
    <trip id="veh8" depart="569.86" from="-1392084250" to="1054315845#0" departLane="best" type="veh_passenger" departSpeed="max"/>
    <trip id="veh9" depart="641.09" from="-1392084250" to="-564298126#9" departLane="best" type="veh_passenger" departSpeed="max"/>
    <trip id="veh10" depart="712.33" from="1392084244#0" to="1326404883" departLane="best" type="veh_passenger" departSpeed="max"/>
    <trip id="veh11" depart="783.56" from="1054315844#0" to="653727191#0" departLane="best" type="veh_passenger" departSpeed="max"/>
    <trip id="veh12" depart="854.79" from="564298145" to="-564298126#9" departLane="best" type="veh_passenger" departSpeed="max"/>
    <trip id="veh13" depart="926.02" from="-1392084250" to="1054315845#0" departLane="best" type="veh_passenger" departSpeed="max"/>
    <trip id="veh14" depart="997.26" from="-1392084250" to="-564298126#9" departLane="best" type="veh_passenger" departSpeed="max"/>
    <trip id="veh15" depart="1068.49" from="1054315844#0" to="653727191#0" departLane="best" type="veh_passenger" departSpeed="max"/>
    <trip id="veh16" depart="1139.72" from="-712245744#1" to="-564298126#9" departLane="best" type="veh_passenger"/>
    <trip id="veh17" depart="1210.96" from="-712245744#1" to="-564298126#9" departLane="best" type="veh_passenger"/>
    <trip id="veh18" depart="1282.19" from="1392084244#0" to="653727191#0" departLane="best" type="veh_passenger" departSpeed="max"/>
    <trip id="veh19" depart="1353.42" from="1392084244#0" to="1326404883" departLane="best" type="veh_passenger" departSpeed="max"/>
    <trip id="veh20" depart="1424.65" from="1392084244#0" to="653727191#0" departLane="best" type="veh_passenger" departSpeed="max"/>
    <trip id="veh21" depart="1495.89" from="-1392084250" to="1054315845#0" departLane="best" type="veh_passenger" departSpeed="max"/>
    <trip id="veh22" depart="1567.12" from="564298145" to="1054315845#0" departLane="best" type="veh_passenger" departSpeed="max"/>
    <trip id="veh23" depart="1638.35" from="1392084244#0" to="653727191#0" departLane="best" type="veh_passenger" departSpeed="max"/>
    <trip id="veh24" depart="1709.58" from="-1392084250" to="1054315845#0" departLane="best" type="veh_passenger" departSpeed="max"/>
    <trip id="veh25" depart="1780.82" from="1392084244#0" to="1326404883" departLane="best" type="veh_passenger" departSpeed="max"/>
    <trip id="veh26" depart="1852.05" from="1392084244#0" to="653727191#0" departLane="best" type="veh_passenger" departSpeed="max"/>
    <trip id="veh27" depart="1923.28" from="564298145" to="1054315845#0" departLane="best" type="veh_passenger" departSpeed="max"/>
    <trip id="veh28" depart="1994.52" from="712245744#0" to="653727191#0" departLane="best" type="veh_passenger"/>
    <trip id="veh29" depart="2065.75" from="564298145" to="-564298126#9" departLane="best" type="veh_passenger" departSpeed="max"/>
    <trip id="veh30" depart="2136.98" from="1054315844#0" to="1326404883" departLane="best" type="veh_passenger" departSpeed="max"/>
    <trip id="veh31" depart="2208.21" from="-1392084250" to="-564298126#9" departLane="best" type="veh_passenger" departSpeed="max"/>
    <trip id="veh32" depart="2279.45" from="-1392084250" to="-564298126#9" departLane="best" type="veh_passenger" departSpeed="max"/>
    <trip id="veh33" depart="2350.68" from="1392084244#0" to="1326404883" departLane="best" type="veh_passenger" departSpeed="max"/>
    <trip id="veh34" depart="2421.91" from="1054315844#0" to="1326404883" departLane="best" type="veh_passenger" departSpeed="max"/>
    <trip id="veh35" depart="2493.14" from="564298145" to="-564298126#9" departLane="best" type="veh_passenger" departSpeed="max"/>
    <trip id="veh36" depart="2564.38" from="564298145" to="-564298126#9" departLane="best" type="veh_passenger" departSpeed="max"/>
    <trip id="veh37" depart="2635.61" from="-1392084250" to="-564298126#9" departLane="best" type="veh_passenger" departSpeed="max"/>
    <trip id="veh38" depart="2706.84" from="1392084244#0" to="653727191#0" departLane="best" type="veh_passenger" departSpeed="max"/>
    <trip id="veh39" depart="2778.07" from="564298145" to="-564298126#9" departLane="best" type="veh_passenger" departSpeed="max"/>
    <trip id="veh40" depart="2849.31" from="1054315844#0" to="653727191#0" departLane="best" type="veh_passenger" departSpeed="max"/>
    <trip id="veh41" depart="2920.54" from="-1392084250" to="1054315845#0" departLane="best" type="veh_passenger" departSpeed="max"/>
    <trip id="veh42" depart="2991.77" from="-1392084250" to="1054315845#0" departLane="best" type="veh_passenger" departSpeed="max"/>
    <trip id="veh43" depart="3063.01" from="1054315844#0" to="653727191#0" departLane="best" type="veh_passenger" departSpeed="max"/>
    <trip id="veh44" depart="3134.24" from="1054315844#0" to="1326404883" departLane="best" type="veh_passenger" departSpeed="max"/>
    <trip id="veh45" depart="3205.47" from="564298145" to="1054315845#0" departLane="best" type="veh_passenger" departSpeed="max"/>
    <trip id="veh46" depart="3276.70" from="1392084244#0" to="1326404883" departLane="best" type="veh_passenger" departSpeed="max"/>
    <trip id="veh47" depart="3347.94" from="-1392084250" to="-564298126#9" departLane="best" type="veh_passenger" departSpeed="max"/>
    <trip id="veh48" depart="3419.17" from="-1392084250" to="1054315845#0" departLane="best" type="veh_passenger" departSpeed="max"/>
    <trip id="veh49" depart="3490.40" from="1054315844#0" to="653727191#0" departLane="best" type="veh_passenger" departSpeed="max"/>
    <trip id="veh50" depart="3561.63" from="564298145" to="1054315845#0" departLane="best" type="veh_passenger" departSpeed="max"/>
</routes>
