<?xml version="1.0" encoding="UTF-8"?>

<!-- generated on 2025-09-02 21:34:39.965957 by osmWebWizard.py v1_24_0+0000-b72eb3fabc8
<configuration>
    <net-file value="C:\Users\kgaqu\OneDrive\Documents\4th Year\Capstone 2\v10\osm_importer\osm_scenarios\2025-09-02-21-34-32\osm.net.xml.gz"/>
    <output-trip-file value="C:\Users\kgaqu\OneDrive\Documents\4th Year\Capstone 2\v10\osm_importer\osm_scenarios\2025-09-02-21-34-32\osm.passenger.trips.xml"/>
    <route-file value="C:\Users\kgaqu\OneDrive\Documents\4th Year\Capstone 2\v10\osm_importer\osm_scenarios\2025-09-02-21-34-32\osm.passenger.rou.xml"/>
    <prefix value="veh"/>
    <trip-attributes value="departLane=&quot;best&quot;"/>
    <fringe-start-attributes value="departSpeed=&quot;max&quot;"/>
    <vehicle-class value="passenger"/>
    <lanes value="True"/>
    <fringe-factor value="5"/>
    <allow-fringe.min-length value="1000.0"/>
    <edge-permission value="passenger"/>
    <via-edge-types value="highway.motorway,highway.motorway_link,highway.trunk_link,highway.primary_link,highway.secondary_link,highway.tertiary_link"/>
    <seed value="45"/>
    <min-distance value="300.0"/>
    <min-distance.fringe value="10.0"/>
    <remove-loops value="True"/>
    <insertion-density value="12.0"/>
</configuration>
-->

<routes xmlns:xsi="http://www.w3.org/2001/XMLSchema-instance" xsi:noNamespaceSchemaLocation="http://sumo.dlr.de/xsd/routes_file.xsd">
    <vType id="veh_passenger" vClass="passenger"/>
    <trip id="veh0" depart="0.00" from="-653727191#1" to="653727192" departLane="best" type="veh_passenger"/>
    <trip id="veh1" depart="30.53" from="-560538898#1" to="1326404883" departLane="best" type="veh_passenger" departSpeed="max"/>
    <trip id="veh2" depart="61.05" from="-560538898#1" to="-564298126#9" departLane="best" type="veh_passenger" departSpeed="max"/>
    <trip id="veh3" depart="91.58" from="-560538898#1" to="657808646" departLane="best" type="veh_passenger" departSpeed="max"/>
    <trip id="veh4" depart="122.10" from="564298145#0" to="1054315845#0" departLane="best" type="veh_passenger" departSpeed="max"/>
    <trip id="veh5" depart="152.63" from="-560538898#1" to="564298119#0" departLane="best" type="veh_passenger" departSpeed="max"/>
    <trip id="veh6" depart="183.16" from="-560538898#1" to="1054315845#0" departLane="best" type="veh_passenger" departSpeed="max"/>
    <trip id="veh7" depart="213.68" from="-560538898#1" to="-564298126#9" departLane="best" type="veh_passenger" departSpeed="max"/>
    <trip id="veh8" depart="244.21" from="1054315844#0" to="657808646" departLane="best" type="veh_passenger" departSpeed="max"/>
    <trip id="veh9" depart="274.73" from="564298145#0" to="653727192" departLane="best" type="veh_passenger" departSpeed="max"/>
    <trip id="veh10" depart="305.26" from="564298145#0" to="653727192" departLane="best" type="veh_passenger" departSpeed="max"/>
    <trip id="veh11" depart="335.79" from="555020953#0" to="-564298126#9" departLane="best" type="veh_passenger"/>
    <trip id="veh12" depart="366.31" from="1054315844#0" to="653727192" departLane="best" type="veh_passenger" departSpeed="max"/>
    <trip id="veh13" depart="396.84" from="1054315844#0" to="657808646" departLane="best" type="veh_passenger" departSpeed="max"/>
    <trip id="veh14" depart="427.36" from="-560538898#1" to="653727191#0" departLane="best" type="veh_passenger" departSpeed="max"/>
    <trip id="veh15" depart="457.89" from="-560538898#1" to="564298119#0" departLane="best" type="veh_passenger" departSpeed="max"/>
    <trip id="veh16" depart="488.42" from="564298145#0" to="653727192" departLane="best" type="veh_passenger" departSpeed="max"/>
    <trip id="veh17" depart="518.94" from="-560538898#1" to="657808646" departLane="best" type="veh_passenger" departSpeed="max"/>
    <trip id="veh18" depart="549.47" from="564298145#0" to="653727192" departLane="best" type="veh_passenger" departSpeed="max"/>
    <trip id="veh19" depart="580.00" from="-712245744#1" to="1054315845#0" departLane="best" type="veh_passenger"/>
    <trip id="veh20" depart="610.52" from="-560538898#1" to="712245744#0" departLane="best" type="veh_passenger" departSpeed="max"/>
    <trip id="veh21" depart="641.05" from="564298145#0" to="653727192" departLane="best" type="veh_passenger" departSpeed="max"/>
    <trip id="veh22" depart="671.57" from="-560538898#1" to="-564298126#9" departLane="best" type="veh_passenger" departSpeed="max"/>
    <trip id="veh23" depart="702.10" from="-560538898#1" to="-653727191#1" departLane="best" type="veh_passenger" departSpeed="max"/>
    <trip id="veh24" depart="732.63" from="1054315844#0" to="653727192" departLane="best" type="veh_passenger" departSpeed="max"/>
    <trip id="veh25" depart="763.15" from="1054315844#0" to="555020953#0" departLane="best" type="veh_passenger" departSpeed="max"/>
    <trip id="veh26" depart="793.68" from="564298145#0" to="653727192" departLane="best" type="veh_passenger" departSpeed="max"/>
    <trip id="veh27" depart="824.20" from="653727191#0" to="1054315845#0" departLane="best" type="veh_passenger"/>
    <trip id="veh28" depart="854.73" from="1392084253" to="657808646" departLane="best" type="veh_passenger" departSpeed="max"/>
    <trip id="veh29" depart="885.26" from="564298145#0" to="653727192" departLane="best" type="veh_passenger" departSpeed="max"/>
    <trip id="veh30" depart="915.78" from="564298145#0" to="653727192" departLane="best" type="veh_passenger" departSpeed="max"/>
    <trip id="veh31" depart="946.31" from="653727191#0" to="653727192" departLane="best" type="veh_passenger"/>
    <trip id="veh32" depart="976.83" from="555020953#0" to="-564298126#9" departLane="best" type="veh_passenger"/>
    <trip id="veh33" depart="1007.36" from="653727191#0" to="1054315845#0" departLane="best" type="veh_passenger"/>
    <trip id="veh34" depart="1037.89" from="-560538898#1" to="-564298126#9" departLane="best" type="veh_passenger" departSpeed="max"/>
    <trip id="veh35" depart="1068.41" from="-560538898#1" to="657808646" departLane="best" type="veh_passenger" departSpeed="max"/>
    <trip id="veh36" depart="1098.94" from="653727191#0" to="653727192" departLane="best" type="veh_passenger"/>
    <trip id="veh37" depart="1129.46" from="1054315844#0" to="657808646" departLane="best" type="veh_passenger" departSpeed="max"/>
    <trip id="veh38" depart="1159.99" from="564298145#0" to="-564298126#9" departLane="best" type="veh_passenger" departSpeed="max"/>
    <trip id="veh39" depart="1190.52" from="1392084253" to="564298119#0" departLane="best" type="veh_passenger" departSpeed="max"/>
    <trip id="veh40" depart="1221.04" from="-560538898#1" to="564298119#0" departLane="best" type="veh_passenger" departSpeed="max"/>
    <trip id="veh41" depart="1251.57" from="564298145#0" to="653727192" departLane="best" type="veh_passenger" departSpeed="max"/>
    <trip id="veh42" depart="1282.09" from="1054315844#0" to="653727192" departLane="best" type="veh_passenger" departSpeed="max"/>
    <trip id="veh43" depart="1312.62" from="564298145#0" to="653727192" departLane="best" type="veh_passenger" departSpeed="max"/>
    <trip id="veh44" depart="1343.15" from="564298145#0" to="1054315845#0" departLane="best" type="veh_passenger" departSpeed="max"/>
    <trip id="veh45" depart="1373.67" from="564298145#0" to="653727192" departLane="best" type="veh_passenger" departSpeed="max"/>
    <trip id="veh46" depart="1404.20" from="1392084253" to="1326404883" departLane="best" type="veh_passenger" departSpeed="max"/>
    <trip id="veh47" depart="1434.72" from="1392084253" to="657808646" departLane="best" type="veh_passenger" departSpeed="max"/>
    <trip id="veh48" depart="1465.25" from="1054315844#0" to="-564298126#9" departLane="best" type="veh_passenger" departSpeed="max"/>
    <trip id="veh49" depart="1495.78" from="564298145#0" to="-564298126#9" departLane="best" type="veh_passenger" departSpeed="max"/>
    <trip id="veh50" depart="1526.30" from="1054315844#0" to="1326404883" departLane="best" type="veh_passenger" departSpeed="max"/>
    <trip id="veh51" depart="1556.83" from="1392084253" to="1054315845#0" departLane="best" type="veh_passenger" departSpeed="max"/>
    <trip id="veh52" depart="1587.35" from="1392084253" to="1054315845#0" departLane="best" type="veh_passenger" departSpeed="max"/>
    <trip id="veh53" depart="1617.88" from="-560538898#1" to="657808646" departLane="best" type="veh_passenger" departSpeed="max"/>
    <trip id="veh54" depart="1648.41" from="653727191#0" to="653727192" departLane="best" type="veh_passenger"/>
    <trip id="veh55" depart="1678.93" from="1054315844#0" to="-712245744#1" departLane="best" type="veh_passenger" departSpeed="max"/>
    <trip id="veh56" depart="1709.46" from="1392084253" to="657808646" departLane="best" type="veh_passenger" departSpeed="max"/>
    <trip id="veh57" depart="1739.99" from="1392084253" to="653727192" departLane="best" type="veh_passenger" departSpeed="max"/>
    <trip id="veh58" depart="1770.51" from="1054315844#0" to="657808646" departLane="best" type="veh_passenger" departSpeed="max"/>
    <trip id="veh59" depart="1801.04" from="-560538898#1" to="657808646" departLane="best" type="veh_passenger" departSpeed="max"/>
    <trip id="veh60" depart="1831.56" from="1392084253" to="657808646" departLane="best" type="veh_passenger" departSpeed="max"/>
    <trip id="veh61" depart="1862.09" from="1054315844#0" to="555020953#0" departLane="best" type="veh_passenger" departSpeed="max"/>
    <trip id="veh62" depart="1892.62" from="564298145#0" to="653727192" departLane="best" type="veh_passenger" departSpeed="max"/>
    <trip id="veh63" depart="1923.14" from="1054315844#0" to="653727192" departLane="best" type="veh_passenger" departSpeed="max"/>
    <trip id="veh64" depart="1953.67" from="1054315844#0" to="-712245744#1" departLane="best" type="veh_passenger" departSpeed="max"/>
    <trip id="veh65" depart="1984.19" from="-560538898#1" to="-564298126#9" departLane="best" type="veh_passenger" departSpeed="max"/>
    <trip id="veh66" depart="2014.72" from="-712245744#1" to="-564298126#9" departLane="best" type="veh_passenger"/>
    <trip id="veh67" depart="2045.25" from="1054315844#0" to="657808646" departLane="best" type="veh_passenger" departSpeed="max"/>
    <trip id="veh68" depart="2075.77" from="-560538898#1" to="-653727191#1" departLane="best" type="veh_passenger" departSpeed="max"/>
    <trip id="veh69" depart="2106.30" from="712245744#0" to="1054315845#0" departLane="best" type="veh_passenger"/>
    <trip id="veh70" depart="2136.82" from="-560538898#1" to="-653727191#1" departLane="best" type="veh_passenger" departSpeed="max"/>
    <trip id="veh71" depart="2167.35" from="-560538898#1" to="-564298126#9" departLane="best" type="veh_passenger" departSpeed="max"/>
    <trip id="veh72" depart="2197.88" from="564298145#0" to="-564298126#9" departLane="best" type="veh_passenger" departSpeed="max"/>
    <trip id="veh73" depart="2228.40" from="1054315844#0" to="712245744#0" departLane="best" type="veh_passenger" departSpeed="max"/>
    <trip id="veh74" depart="2258.93" from="712245744#0" to="653727192" departLane="best" type="veh_passenger"/>
    <trip id="veh75" depart="2289.45" from="-560538898#1" to="657808646" departLane="best" type="veh_passenger" departSpeed="max"/>
    <trip id="veh76" depart="2319.98" from="564298145#0" to="653727192" departLane="best" type="veh_passenger" departSpeed="max"/>
    <trip id="veh77" depart="2350.51" from="1054315844#0" to="-712245744#1" departLane="best" type="veh_passenger" departSpeed="max"/>
    <trip id="veh78" depart="2381.03" from="-712245744#1" to="1054315845#0" departLane="best" type="veh_passenger"/>
    <trip id="veh79" depart="2411.56" from="922415126" to="653727192" departLane="best" type="veh_passenger"/>
    <trip id="veh80" depart="2442.08" from="-653727191#1" to="653727192" departLane="best" type="veh_passenger"/>
    <trip id="veh81" depart="2472.61" from="-653727191#1" to="-564298126#9" departLane="best" type="veh_passenger"/>
    <trip id="veh82" depart="2503.14" from="-560538898#1" to="657808646" departLane="best" type="veh_passenger" departSpeed="max"/>
    <trip id="veh83" depart="2533.66" from="1054315844#0" to="653727192" departLane="best" type="veh_passenger" departSpeed="max"/>
    <trip id="veh84" depart="2564.19" from="1054315844#0" to="-712245744#1" departLane="best" type="veh_passenger" departSpeed="max"/>
    <trip id="veh85" depart="2594.71" from="-560538898#1" to="657808646" departLane="best" type="veh_passenger" departSpeed="max"/>
    <trip id="veh86" depart="2625.24" from="-712245744#1" to="653727192" departLane="best" type="veh_passenger"/>
    <trip id="veh87" depart="2655.77" from="564298145#0" to="653727192" departLane="best" type="veh_passenger" departSpeed="max"/>
    <trip id="veh88" depart="2686.29" from="564298145#0" to="653727192" departLane="best" type="veh_passenger" departSpeed="max"/>
    <trip id="veh89" depart="2716.82" from="1054315844#0" to="657808646" departLane="best" type="veh_passenger" departSpeed="max"/>
    <trip id="veh90" depart="2747.34" from="1054315844#0" to="653727192" departLane="best" type="veh_passenger" departSpeed="max"/>
    <trip id="veh91" depart="2777.87" from="1392084253" to="657808646" departLane="best" type="veh_passenger" departSpeed="max"/>
    <trip id="veh92" depart="2808.40" from="1392084253" to="1054315845#0" departLane="best" type="veh_passenger" departSpeed="max"/>
    <trip id="veh93" depart="2838.92" from="564298145#0" to="653727192" departLane="best" type="veh_passenger" departSpeed="max"/>
    <trip id="veh94" depart="2869.45" from="-560538898#1" to="657808646" departLane="best" type="veh_passenger" departSpeed="max"/>
    <trip id="veh95" depart="2899.98" from="555020953#0" to="653727192" departLane="best" type="veh_passenger"/>
    <trip id="veh96" depart="2930.50" from="-712245744#1" to="653727192" departLane="best" type="veh_passenger"/>
    <trip id="veh97" depart="2961.03" from="1054315844#0" to="-564298126#9" departLane="best" type="veh_passenger" departSpeed="max"/>
    <trip id="veh98" depart="2991.55" from="564298145#0" to="653727192" departLane="best" type="veh_passenger" departSpeed="max"/>
    <trip id="veh99" depart="3022.08" from="653727191#0" to="1054315845#0" departLane="best" type="veh_passenger"/>
    <trip id="veh100" depart="3052.61" from="1054315844#0" to="564298119#0" departLane="best" type="veh_passenger" departSpeed="max"/>
    <trip id="veh101" depart="3083.13" from="922415126" to="-564298126#9" departLane="best" type="veh_passenger"/>
    <trip id="veh102" depart="3113.66" from="1054315844#0" to="657808646" departLane="best" type="veh_passenger" departSpeed="max"/>
    <trip id="veh103" depart="3144.18" from="564298145#0" to="1054315845#0" departLane="best" type="veh_passenger" departSpeed="max"/>
    <trip id="veh104" depart="3174.71" from="1392084253" to="653727192" departLane="best" type="veh_passenger" departSpeed="max"/>
    <trip id="veh105" depart="3205.24" from="712245744#0" to="1054315845#0" departLane="best" type="veh_passenger"/>
    <trip id="veh106" depart="3235.76" from="564298145#0" to="653727192" departLane="best" type="veh_passenger" departSpeed="max"/>
    <trip id="veh107" depart="3266.29" from="1054315844#0" to="712245744#0" departLane="best" type="veh_passenger" departSpeed="max"/>
    <trip id="veh108" depart="3296.81" from="653727191#0" to="1054315845#0" departLane="best" type="veh_passenger"/>
    <trip id="veh109" depart="3327.34" from="1054315844#0" to="653727192" departLane="best" type="veh_passenger" departSpeed="max"/>
    <trip id="veh110" depart="3357.87" from="-560538898#1" to="1054315845#0" departLane="best" type="veh_passenger" departSpeed="max"/>
    <trip id="veh111" depart="3388.39" from="-560538898#1" to="657808646" departLane="best" type="veh_passenger" departSpeed="max"/>
    <trip id="veh112" depart="3418.92" from="564298145#0" to="653727192" departLane="best" type="veh_passenger" departSpeed="max"/>
    <trip id="veh113" depart="3449.44" from="564298145#0" to="1054315845#0" departLane="best" type="veh_passenger" departSpeed="max"/>
    <trip id="veh114" depart="3479.97" from="922415126" to="-564298126#9" departLane="best" type="veh_passenger"/>
    <trip id="veh115" depart="3510.50" from="-560538898#1" to="564298119#0" departLane="best" type="veh_passenger" departSpeed="max"/>
    <trip id="veh116" depart="3541.02" from="-560538898#1" to="-653727191#1" departLane="best" type="veh_passenger" departSpeed="max"/>
    <trip id="veh117" depart="3571.55" from="564298145#0" to="653727192" departLane="best" type="veh_passenger" departSpeed="max"/>
</routes>
