<?xml version="1.0" encoding="UTF-8"?>

<!-- generated on 2025-10-20 17:24:12.679697 by randomTrips.py v1_24_0+0000-b72eb3fabc8
<configuration>
    <net-file value="osm.net.xml.gz"/>
    <output-trip-file value="osm.truck.trips.xml"/>
    <route-file value="osm.truck.rou.xml"/>
    <prefix value="truck"/>
    <vehicle-class value="truck"/>
    <fringe-factor value="10"/>
    <seed value="45"/>
    <min-distance value="200.0"/>
    <insertion-density value="6.0"/>
</configuration>
-->

<routes xmlns:xsi="http://www.w3.org/2001/XMLSchema-instance" xsi:noNamespaceSchemaLocation="http://sumo.dlr.de/xsd/routes_file.xsd">
    <vType id="truck_truck" vClass="truck"/>
    <trip id="truck0" depart="0.00" from="-1392084250" to="1054315845#0" type="truck_truck"/>
    <trip id="truck1" depart="142.47" from="-1392084250" to="-564298126#9" type="truck_truck"/>
    <trip id="truck2" depart="284.93" from="1054315844#0" to="555020953#0" type="truck_truck"/>
    <trip id="truck3" depart="427.40" from="-1392084250" to="1054315845#0" type="truck_truck"/>
    <trip id="truck4" depart="569.86" from="1392084244#0" to="653727191#0" type="truck_truck"/>
    <trip id="truck5" depart="712.33" from="-1392084250" to="-712245744#1" type="truck_truck"/>
    <trip id="truck6" depart="854.79" from="564298145" to="653727191#0" type="truck_truck"/>
    <trip id="truck7" depart="997.26" from="-1392084250" to="-564298126#9" type="truck_truck"/>
    <trip id="truck8" depart="1139.72" from="564298145" to="1054315845#0" type="truck_truck"/>
    <trip id="truck9" depart="1282.19" from="1054315844#0" to="653727191#0" type="truck_truck"/>
    <trip id="truck10" depart="1424.65" from="564298145" to="653727191#0" type="truck_truck"/>
    <trip id="truck11" depart="1567.12" from="1054315844#0" to="1326404883" type="truck_truck"/>
    <trip id="truck12" depart="1709.58" from="1054315844#0" to="653727191#0" type="truck_truck"/>
    <trip id="truck13" depart="1852.05" from="-1392084250" to="1054315845#0" type="truck_truck"/>
    <trip id="truck14" depart="1994.52" from="-1392084250" to="1054315845#0" type="truck_truck"/>
    <trip id="truck15" depart="2136.98" from="1392084244#0" to="1326404883" type="truck_truck"/>
    <trip id="truck16" depart="2279.45" from="1054315844#0" to="653727191#0" type="truck_truck"/>
    <trip id="truck17" depart="2421.91" from="1392084244#0" to="1326404883" type="truck_truck"/>
    <trip id="truck18" depart="2564.38" from="1392084244#0" to="1326404883" type="truck_truck"/>
    <trip id="truck19" depart="2706.84" from="-1392084250" to="-564298126#9" type="truck_truck"/>
    <trip id="truck20" depart="2849.31" from="564298145" to="653727191#0" type="truck_truck"/>
    <trip id="truck21" depart="2991.77" from="564298145" to="653727191#0" type="truck_truck"/>
    <trip id="truck22" depart="3134.24" from="-1392084250" to="-564298126#9" type="truck_truck"/>
    <trip id="truck23" depart="3276.70" from="1054315844#0" to="1326404883" type="truck_truck"/>
    <trip id="truck24" depart="3419.17" from="564298145" to="1054315845#0" type="truck_truck"/>
    <trip id="truck25" depart="3561.63" from="564298145" to="1054315845#0" type="truck_truck"/>
</routes>
