<?xml version="1.0" encoding="UTF-8"?>

<!-- generated on 2025-09-03 01:04:13 by Eclipse SUMO duarouter Version 1.24.0
<duarouterConfiguration xmlns:xsi="http://www.w3.org/2001/XMLSchema-instance" xsi:noNamespaceSchemaLocation="http://sumo.dlr.de/xsd/duarouterConfiguration.xsd">

    <input>
        <net-file value="C:\Users\kgaqu\OneDrive\Documents\4th Year\Capstone 2\v10\backend\networks\st_dominic_area\st_dominic_area.net.xml"/>
        <route-files value="C:\Users\kgaqu\OneDrive\Documents\4th Year\Capstone 2\v10\backend\networks\st_dominic_area\routes\osm.passenger.trips.xml"/>
    </input>

    <output>
        <output-file value="C:\Users\kgaqu\OneDrive\Documents\4th Year\Capstone 2\v10\backend\networks\st_dominic_area\routes\osm.passenger.rou.xml"/>
    </output>

    <report>
        <ignore-errors value="true"/>
    </report>

</duarouterConfiguration>
-->

<routes xmlns:xsi="http://www.w3.org/2001/XMLSchema-instance" xsi:noNamespaceSchemaLocation="http://sumo.dlr.de/xsd/routes_file.xsd">
    <vType id="veh_passenger" vClass="passenger"/>
    <vehicle id="veh0" type="veh_passenger" depart="0.00" departLane="best">
        <route edges="-653727191#1 653727191#0 653727192"/>
    </vehicle>
    <vehicle id="veh1" type="veh_passenger" depart="30.53" departLane="best" departSpeed="max">
        <route edges="-560538898#1 -653727191#1 1326404883"/>
    </vehicle>
    <vehicle id="veh2" type="veh_passenger" depart="61.05" departLane="best" departSpeed="max">
        <route edges="-560538898#1 -653727191#1 -712245744#1 -564298126#9"/>
    </vehicle>
    <vehicle id="veh3" type="veh_passenger" depart="91.58" departLane="best" departSpeed="max">
        <route edges="-560538898#1 564298119#0 657808646"/>
    </vehicle>
    <vehicle id="veh4" type="veh_passenger" depart="122.10" departLane="best" departSpeed="max">
        <route edges="564298145#0 922415126 1054315845#0"/>
    </vehicle>
    <vehicle id="veh5" type="veh_passenger" depart="152.63" departLane="best" departSpeed="max">
        <route edges="-560538898#1 564298119#0"/>
    </vehicle>
    <vehicle id="veh6" type="veh_passenger" depart="183.16" departLane="best" departSpeed="max">
        <route edges="-560538898#1 -653727191#1 1054315845#0"/>
    </vehicle>
    <vehicle id="veh7" type="veh_passenger" depart="213.68" departLane="best" departSpeed="max">
        <route edges="-560538898#1 -653727191#1 -712245744#1 -564298126#9"/>
    </vehicle>
    <vehicle id="veh8" type="veh_passenger" depart="244.21" departLane="best" departSpeed="max">
        <route edges="1054315844#0 555020953#0 1326404883 564298119#0 657808646"/>
    </vehicle>
    <vehicle id="veh9" type="veh_passenger" depart="274.73" departLane="best" departSpeed="max">
        <route edges="564298145#0 922415126 653727191#0 653727192"/>
    </vehicle>
    <vehicle id="veh10" type="veh_passenger" depart="305.26" departLane="best" departSpeed="max">
        <route edges="564298145#0 922415126 653727191#0 653727192"/>
    </vehicle>
    <vehicle id="veh11" type="veh_passenger" depart="335.79" departLane="best">
        <route edges="555020953#0 -712245744#1 -564298126#9"/>
    </vehicle>
    <vehicle id="veh12" type="veh_passenger" depart="366.31" departLane="best" departSpeed="max">
        <route edges="1054315844#0 555020953#0 653727191#0 653727192"/>
    </vehicle>
    <vehicle id="veh13" type="veh_passenger" depart="396.84" departLane="best" departSpeed="max">
        <route edges="1054315844#0 555020953#0 1326404883 564298119#0 657808646"/>
    </vehicle>
    <vehicle id="veh14" type="veh_passenger" depart="427.36" departLane="best" departSpeed="max">
        <route edges="-560538898#1 -653727191#1 653727191#0"/>
    </vehicle>
    <vehicle id="veh15" type="veh_passenger" depart="457.89" departLane="best" departSpeed="max">
        <route edges="-560538898#1 564298119#0"/>
    </vehicle>
    <vehicle id="veh16" type="veh_passenger" depart="488.42" departLane="best" departSpeed="max">
        <route edges="564298145#0 922415126 653727191#0 653727192"/>
    </vehicle>
    <vehicle id="veh17" type="veh_passenger" depart="518.94" departLane="best" departSpeed="max">
        <route edges="-560538898#1 564298119#0 657808646"/>
    </vehicle>
    <vehicle id="veh18" type="veh_passenger" depart="549.47" departLane="best" departSpeed="max">
        <route edges="564298145#0 922415126 653727191#0 653727192"/>
    </vehicle>
    <vehicle id="veh19" type="veh_passenger" depart="580.00" departLane="best">
        <route edges="-712245744#1 -564298126#9 1392084253 712245744#0 1054315845#0"/>
    </vehicle>
    <vehicle id="veh20" type="veh_passenger" depart="610.52" departLane="best" departSpeed="max">
        <route edges="-560538898#1 -653727191#1 -712245744#1 -564298126#9 1392084253 712245744#0"/>
    </vehicle>
    <vehicle id="veh21" type="veh_passenger" depart="641.05" departLane="best" departSpeed="max">
        <route edges="564298145#0 922415126 653727191#0 653727192"/>
    </vehicle>
    <vehicle id="veh22" type="veh_passenger" depart="671.57" departLane="best" departSpeed="max">
        <route edges="-560538898#1 -653727191#1 -712245744#1 -564298126#9"/>
    </vehicle>
    <vehicle id="veh23" type="veh_passenger" depart="702.10" departLane="best" departSpeed="max">
        <route edges="-560538898#1 -653727191#1"/>
    </vehicle>
    <vehicle id="veh24" type="veh_passenger" depart="732.63" departLane="best" departSpeed="max">
        <route edges="1054315844#0 555020953#0 653727191#0 653727192"/>
    </vehicle>
    <vehicle id="veh25" type="veh_passenger" depart="763.15" departLane="best" departSpeed="max">
        <route edges="1054315844#0 555020953#0"/>
    </vehicle>
    <vehicle id="veh26" type="veh_passenger" depart="793.68" departLane="best" departSpeed="max">
        <route edges="564298145#0 922415126 653727191#0 653727192"/>
    </vehicle>
    <vehicle id="veh27" type="veh_passenger" depart="824.20" departLane="best">
        <route edges="653727191#0 -653727191#1 1054315845#0"/>
    </vehicle>
    <vehicle id="veh28" type="veh_passenger" depart="854.73" departLane="best" departSpeed="max">
        <route edges="1392084253 712245744#0 1326404883 564298119#0 657808646"/>
    </vehicle>
    <vehicle id="veh29" type="veh_passenger" depart="885.26" departLane="best" departSpeed="max">
        <route edges="564298145#0 922415126 653727191#0 653727192"/>
    </vehicle>
    <vehicle id="veh30" type="veh_passenger" depart="915.78" departLane="best" departSpeed="max">
        <route edges="564298145#0 922415126 653727191#0 653727192"/>
    </vehicle>
    <vehicle id="veh31" type="veh_passenger" depart="946.31" departLane="best">
        <route edges="653727191#0 653727192"/>
    </vehicle>
    <vehicle id="veh32" type="veh_passenger" depart="976.83" departLane="best">
        <route edges="555020953#0 -712245744#1 -564298126#9"/>
    </vehicle>
    <vehicle id="veh33" type="veh_passenger" depart="1007.36" departLane="best">
        <route edges="653727191#0 -653727191#1 1054315845#0"/>
    </vehicle>
    <vehicle id="veh34" type="veh_passenger" depart="1037.89" departLane="best" departSpeed="max">
        <route edges="-560538898#1 -653727191#1 -712245744#1 -564298126#9"/>
    </vehicle>
    <vehicle id="veh35" type="veh_passenger" depart="1068.41" departLane="best" departSpeed="max">
        <route edges="-560538898#1 564298119#0 657808646"/>
    </vehicle>
    <vehicle id="veh36" type="veh_passenger" depart="1098.94" departLane="best">
        <route edges="653727191#0 653727192"/>
    </vehicle>
    <vehicle id="veh37" type="veh_passenger" depart="1129.46" departLane="best" departSpeed="max">
        <route edges="1054315844#0 555020953#0 1326404883 564298119#0 657808646"/>
    </vehicle>
    <vehicle id="veh38" type="veh_passenger" depart="1159.99" departLane="best" departSpeed="max">
        <route edges="564298145#0 922415126 -712245744#1 -564298126#9"/>
    </vehicle>
    <vehicle id="veh39" type="veh_passenger" depart="1190.52" departLane="best" departSpeed="max">
        <route edges="1392084253 712245744#0 1326404883 564298119#0"/>
    </vehicle>
    <vehicle id="veh40" type="veh_passenger" depart="1221.04" departLane="best" departSpeed="max">
        <route edges="-560538898#1 564298119#0"/>
    </vehicle>
    <vehicle id="veh41" type="veh_passenger" depart="1251.57" departLane="best" departSpeed="max">
        <route edges="564298145#0 922415126 653727191#0 653727192"/>
    </vehicle>
    <vehicle id="veh42" type="veh_passenger" depart="1282.09" departLane="best" departSpeed="max">
        <route edges="1054315844#0 555020953#0 653727191#0 653727192"/>
    </vehicle>
    <vehicle id="veh43" type="veh_passenger" depart="1312.62" departLane="best" departSpeed="max">
        <route edges="564298145#0 922415126 653727191#0 653727192"/>
    </vehicle>
    <vehicle id="veh44" type="veh_passenger" depart="1343.15" departLane="best" departSpeed="max">
        <route edges="564298145#0 922415126 1054315845#0"/>
    </vehicle>
    <vehicle id="veh45" type="veh_passenger" depart="1373.67" departLane="best" departSpeed="max">
        <route edges="564298145#0 922415126 653727191#0 653727192"/>
    </vehicle>
    <vehicle id="veh46" type="veh_passenger" depart="1404.20" departLane="best" departSpeed="max">
        <route edges="1392084253 712245744#0 1326404883"/>
    </vehicle>
    <vehicle id="veh47" type="veh_passenger" depart="1434.72" departLane="best" departSpeed="max">
        <route edges="1392084253 712245744#0 1326404883 564298119#0 657808646"/>
    </vehicle>
    <vehicle id="veh48" type="veh_passenger" depart="1465.25" departLane="best" departSpeed="max">
        <route edges="1054315844#0 555020953#0 -712245744#1 -564298126#9"/>
    </vehicle>
    <vehicle id="veh49" type="veh_passenger" depart="1495.78" departLane="best" departSpeed="max">
        <route edges="564298145#0 922415126 -712245744#1 -564298126#9"/>
    </vehicle>
    <vehicle id="veh50" type="veh_passenger" depart="1526.30" departLane="best" departSpeed="max">
        <route edges="1054315844#0 555020953#0 1326404883"/>
    </vehicle>
    <vehicle id="veh51" type="veh_passenger" depart="1556.83" departLane="best" departSpeed="max">
        <route edges="1392084253 712245744#0 1054315845#0"/>
    </vehicle>
    <vehicle id="veh52" type="veh_passenger" depart="1587.35" departLane="best" departSpeed="max">
        <route edges="1392084253 712245744#0 1054315845#0"/>
    </vehicle>
    <vehicle id="veh53" type="veh_passenger" depart="1617.88" departLane="best" departSpeed="max">
        <route edges="-560538898#1 564298119#0 657808646"/>
    </vehicle>
    <vehicle id="veh54" type="veh_passenger" depart="1648.41" departLane="best">
        <route edges="653727191#0 653727192"/>
    </vehicle>
    <vehicle id="veh55" type="veh_passenger" depart="1678.93" departLane="best" departSpeed="max">
        <route edges="1054315844#0 555020953#0 -712245744#1"/>
    </vehicle>
    <vehicle id="veh56" type="veh_passenger" depart="1709.46" departLane="best" departSpeed="max">
        <route edges="1392084253 712245744#0 1326404883 564298119#0 657808646"/>
    </vehicle>
    <vehicle id="veh57" type="veh_passenger" depart="1739.99" departLane="best" departSpeed="max">
        <route edges="1392084253 712245744#0 653727191#0 653727192"/>
    </vehicle>
    <vehicle id="veh58" type="veh_passenger" depart="1770.51" departLane="best" departSpeed="max">
        <route edges="1054315844#0 555020953#0 1326404883 564298119#0 657808646"/>
    </vehicle>
    <vehicle id="veh59" type="veh_passenger" depart="1801.04" departLane="best" departSpeed="max">
        <route edges="-560538898#1 564298119#0 657808646"/>
    </vehicle>
    <vehicle id="veh60" type="veh_passenger" depart="1831.56" departLane="best" departSpeed="max">
        <route edges="1392084253 712245744#0 1326404883 564298119#0 657808646"/>
    </vehicle>
    <vehicle id="veh61" type="veh_passenger" depart="1862.09" departLane="best" departSpeed="max">
        <route edges="1054315844#0 555020953#0"/>
    </vehicle>
    <vehicle id="veh62" type="veh_passenger" depart="1892.62" departLane="best" departSpeed="max">
        <route edges="564298145#0 922415126 653727191#0 653727192"/>
    </vehicle>
    <vehicle id="veh63" type="veh_passenger" depart="1923.14" departLane="best" departSpeed="max">
        <route edges="1054315844#0 555020953#0 653727191#0 653727192"/>
    </vehicle>
    <vehicle id="veh64" type="veh_passenger" depart="1953.67" departLane="best" departSpeed="max">
        <route edges="1054315844#0 555020953#0 -712245744#1"/>
    </vehicle>
    <vehicle id="veh65" type="veh_passenger" depart="1984.19" departLane="best" departSpeed="max">
        <route edges="-560538898#1 -653727191#1 -712245744#1 -564298126#9"/>
    </vehicle>
    <vehicle id="veh66" type="veh_passenger" depart="2014.72" departLane="best">
        <route edges="-712245744#1 -564298126#9"/>
    </vehicle>
    <vehicle id="veh67" type="veh_passenger" depart="2045.25" departLane="best" departSpeed="max">
        <route edges="1054315844#0 555020953#0 1326404883 564298119#0 657808646"/>
    </vehicle>
    <vehicle id="veh68" type="veh_passenger" depart="2075.77" departLane="best" departSpeed="max">
        <route edges="-560538898#1 -653727191#1"/>
    </vehicle>
    <vehicle id="veh69" type="veh_passenger" depart="2106.30" departLane="best">
        <route edges="712245744#0 1054315845#0"/>
    </vehicle>
    <vehicle id="veh70" type="veh_passenger" depart="2136.82" departLane="best" departSpeed="max">
        <route edges="-560538898#1 -653727191#1"/>
    </vehicle>
    <vehicle id="veh71" type="veh_passenger" depart="2167.35" departLane="best" departSpeed="max">
        <route edges="-560538898#1 -653727191#1 -712245744#1 -564298126#9"/>
    </vehicle>
    <vehicle id="veh72" type="veh_passenger" depart="2197.88" departLane="best" departSpeed="max">
        <route edges="564298145#0 922415126 -712245744#1 -564298126#9"/>
    </vehicle>
    <vehicle id="veh73" type="veh_passenger" depart="2228.40" departLane="best" departSpeed="max">
        <route edges="1054315844#0 555020953#0 -712245744#1 -564298126#9 1392084253 712245744#0"/>
    </vehicle>
    <vehicle id="veh74" type="veh_passenger" depart="2258.93" departLane="best">
        <route edges="712245744#0 653727191#0 653727192"/>
    </vehicle>
    <vehicle id="veh75" type="veh_passenger" depart="2289.45" departLane="best" departSpeed="max">
        <route edges="-560538898#1 564298119#0 657808646"/>
    </vehicle>
    <vehicle id="veh76" type="veh_passenger" depart="2319.98" departLane="best" departSpeed="max">
        <route edges="564298145#0 922415126 653727191#0 653727192"/>
    </vehicle>
    <vehicle id="veh77" type="veh_passenger" depart="2350.51" departLane="best" departSpeed="max">
        <route edges="1054315844#0 555020953#0 -712245744#1"/>
    </vehicle>
    <vehicle id="veh78" type="veh_passenger" depart="2381.03" departLane="best">
        <route edges="-712245744#1 -564298126#9 1392084253 712245744#0 1054315845#0"/>
    </vehicle>
    <vehicle id="veh79" type="veh_passenger" depart="2411.56" departLane="best">
        <route edges="922415126 653727191#0 653727192"/>
    </vehicle>
    <vehicle id="veh80" type="veh_passenger" depart="2442.08" departLane="best">
        <route edges="-653727191#1 653727191#0 653727192"/>
    </vehicle>
    <vehicle id="veh81" type="veh_passenger" depart="2472.61" departLane="best">
        <route edges="-653727191#1 -712245744#1 -564298126#9"/>
    </vehicle>
    <vehicle id="veh82" type="veh_passenger" depart="2503.14" departLane="best" departSpeed="max">
        <route edges="-560538898#1 564298119#0 657808646"/>
    </vehicle>
    <vehicle id="veh83" type="veh_passenger" depart="2533.66" departLane="best" departSpeed="max">
        <route edges="1054315844#0 555020953#0 653727191#0 653727192"/>
    </vehicle>
    <vehicle id="veh84" type="veh_passenger" depart="2564.19" departLane="best" departSpeed="max">
        <route edges="1054315844#0 555020953#0 -712245744#1"/>
    </vehicle>
    <vehicle id="veh85" type="veh_passenger" depart="2594.71" departLane="best" departSpeed="max">
        <route edges="-560538898#1 564298119#0 657808646"/>
    </vehicle>
    <vehicle id="veh86" type="veh_passenger" depart="2625.24" departLane="best">
        <route edges="-712245744#1 -564298126#9 1392084253 712245744#0 653727191#0 653727192"/>
    </vehicle>
    <vehicle id="veh87" type="veh_passenger" depart="2655.77" departLane="best" departSpeed="max">
        <route edges="564298145#0 922415126 653727191#0 653727192"/>
    </vehicle>
    <vehicle id="veh88" type="veh_passenger" depart="2686.29" departLane="best" departSpeed="max">
        <route edges="564298145#0 922415126 653727191#0 653727192"/>
    </vehicle>
    <vehicle id="veh89" type="veh_passenger" depart="2716.82" departLane="best" departSpeed="max">
        <route edges="1054315844#0 555020953#0 1326404883 564298119#0 657808646"/>
    </vehicle>
    <vehicle id="veh90" type="veh_passenger" depart="2747.34" departLane="best" departSpeed="max">
        <route edges="1054315844#0 555020953#0 653727191#0 653727192"/>
    </vehicle>
    <vehicle id="veh91" type="veh_passenger" depart="2777.87" departLane="best" departSpeed="max">
        <route edges="1392084253 712245744#0 1326404883 564298119#0 657808646"/>
    </vehicle>
    <vehicle id="veh92" type="veh_passenger" depart="2808.40" departLane="best" departSpeed="max">
        <route edges="1392084253 712245744#0 1054315845#0"/>
    </vehicle>
    <vehicle id="veh93" type="veh_passenger" depart="2838.92" departLane="best" departSpeed="max">
        <route edges="564298145#0 922415126 653727191#0 653727192"/>
    </vehicle>
    <vehicle id="veh94" type="veh_passenger" depart="2869.45" departLane="best" departSpeed="max">
        <route edges="-560538898#1 564298119#0 657808646"/>
    </vehicle>
    <vehicle id="veh95" type="veh_passenger" depart="2899.98" departLane="best">
        <route edges="555020953#0 653727191#0 653727192"/>
    </vehicle>
    <vehicle id="veh96" type="veh_passenger" depart="2930.50" departLane="best">
        <route edges="-712245744#1 -564298126#9 1392084253 712245744#0 653727191#0 653727192"/>
    </vehicle>
    <vehicle id="veh97" type="veh_passenger" depart="2961.03" departLane="best" departSpeed="max">
        <route edges="1054315844#0 555020953#0 -712245744#1 -564298126#9"/>
    </vehicle>
    <vehicle id="veh98" type="veh_passenger" depart="2991.55" departLane="best" departSpeed="max">
        <route edges="564298145#0 922415126 653727191#0 653727192"/>
    </vehicle>
    <vehicle id="veh99" type="veh_passenger" depart="3022.08" departLane="best">
        <route edges="653727191#0 -653727191#1 1054315845#0"/>
    </vehicle>
    <vehicle id="veh100" type="veh_passenger" depart="3052.61" departLane="best" departSpeed="max">
        <route edges="1054315844#0 555020953#0 1326404883 564298119#0"/>
    </vehicle>
    <vehicle id="veh101" type="veh_passenger" depart="3083.13" departLane="best">
        <route edges="922415126 -712245744#1 -564298126#9"/>
    </vehicle>
    <vehicle id="veh102" type="veh_passenger" depart="3113.66" departLane="best" departSpeed="max">
        <route edges="1054315844#0 555020953#0 1326404883 564298119#0 657808646"/>
    </vehicle>
    <vehicle id="veh103" type="veh_passenger" depart="3144.18" departLane="best" departSpeed="max">
        <route edges="564298145#0 922415126 1054315845#0"/>
    </vehicle>
    <vehicle id="veh104" type="veh_passenger" depart="3174.71" departLane="best" departSpeed="max">
        <route edges="1392084253 712245744#0 653727191#0 653727192"/>
    </vehicle>
    <vehicle id="veh105" type="veh_passenger" depart="3205.24" departLane="best">
        <route edges="712245744#0 1054315845#0"/>
    </vehicle>
    <vehicle id="veh106" type="veh_passenger" depart="3235.76" departLane="best" departSpeed="max">
        <route edges="564298145#0 922415126 653727191#0 653727192"/>
    </vehicle>
    <vehicle id="veh107" type="veh_passenger" depart="3266.29" departLane="best" departSpeed="max">
        <route edges="1054315844#0 555020953#0 -712245744#1 -564298126#9 1392084253 712245744#0"/>
    </vehicle>
    <vehicle id="veh108" type="veh_passenger" depart="3296.81" departLane="best">
        <route edges="653727191#0 -653727191#1 1054315845#0"/>
    </vehicle>
    <vehicle id="veh109" type="veh_passenger" depart="3327.34" departLane="best" departSpeed="max">
        <route edges="1054315844#0 555020953#0 653727191#0 653727192"/>
    </vehicle>
    <vehicle id="veh110" type="veh_passenger" depart="3357.87" departLane="best" departSpeed="max">
        <route edges="-560538898#1 -653727191#1 1054315845#0"/>
    </vehicle>
    <vehicle id="veh111" type="veh_passenger" depart="3388.39" departLane="best" departSpeed="max">
        <route edges="-560538898#1 564298119#0 657808646"/>
    </vehicle>
    <vehicle id="veh112" type="veh_passenger" depart="3418.92" departLane="best" departSpeed="max">
        <route edges="564298145#0 922415126 653727191#0 653727192"/>
    </vehicle>
    <vehicle id="veh113" type="veh_passenger" depart="3449.44" departLane="best" departSpeed="max">
        <route edges="564298145#0 922415126 1054315845#0"/>
    </vehicle>
    <vehicle id="veh114" type="veh_passenger" depart="3479.97" departLane="best">
        <route edges="922415126 -712245744#1 -564298126#9"/>
    </vehicle>
    <vehicle id="veh115" type="veh_passenger" depart="3510.50" departLane="best" departSpeed="max">
        <route edges="-560538898#1 564298119#0"/>
    </vehicle>
    <vehicle id="veh116" type="veh_passenger" depart="3541.02" departLane="best" departSpeed="max">
        <route edges="-560538898#1 -653727191#1"/>
    </vehicle>
    <vehicle id="veh117" type="veh_passenger" depart="3571.55" departLane="best" departSpeed="max">
        <route edges="564298145#0 922415126 653727191#0 653727192"/>
    </vehicle>
</routes>
