<?xml version="1.0" encoding="UTF-8"?>

<!-- generated on 2025-09-17 21:32:48.635567 by randomTrips.py v1_24_0+0000-b72eb3fabc8
<configuration>
    <net-file value="osm.net.xml.gz"/>
    <output-trip-file value="osm.bus.trips.xml"/>
    <route-file value="osm.bus.rou.xml"/>
    <prefix value="bus"/>
    <trip-attributes value="departLane=&quot;best&quot;"/>
    <fringe-start-attributes value="departSpeed=&quot;max&quot;"/>
    <vehicle-class value="bus"/>
    <fringe-factor value="5"/>
    <edge-permission value="bus"/>
    <via-edge-types value="highway.motorway,highway.motorway_link,highway.trunk_link,highway.primary_link,highway.secondary_link,highway.tertiary_link"/>
    <min-distance value="600.0"/>
    <min-distance.fringe value="10.0"/>
    <remove-loops value="True"/>
    <insertion-density value="4.0"/>
</configuration>
-->

<routes xmlns:xsi="http://www.w3.org/2001/XMLSchema-instance" xsi:noNamespaceSchemaLocation="http://sumo.dlr.de/xsd/routes_file.xsd">
    <vType id="bus_bus" vClass="bus"/>
    <trip id="bus0" depart="0.00" from="1392084244#0" to="-564298126#9" via="653727191#0"  departLane="best" type="bus_bus" departSpeed="max"/>
    <trip id="bus1" depart="213.78" from="1392084244#0" to="-564298126#9" via="653727191#0"  departLane="best" type="bus_bus" departSpeed="max"/>
    <trip id="bus2" depart="427.57" from="1392084244#0" to="-564298126#9" via="-653727191#1"  departLane="best" type="bus_bus" departSpeed="max"/>
    <trip id="bus3" depart="641.35" from="1392084244#0" to="1054315845#0" via="-653727191#1"  departLane="best" type="bus_bus" departSpeed="max"/>
    <trip id="bus4" depart="855.13" from="1392084244#0" to="-564298126#9" via="653727191#0"  departLane="best" type="bus_bus" departSpeed="max"/>
    <trip id="bus5" depart="1068.92" from="1392084244#0" to="1054315845#0" via="-653727191#1"  departLane="best" type="bus_bus" departSpeed="max"/>
    <trip id="bus6" depart="1282.70" from="-1392084250" to="653727192" via="712245744#0"  departLane="best" type="bus_bus" departSpeed="max"/>
    <trip id="bus7" depart="1496.48" from="1392084244#0" to="-564298126#9" via="653727191#0"  departLane="best" type="bus_bus" departSpeed="max"/>
    <trip id="bus8" depart="1710.27" from="1392084244#0" to="-564298126#9" via="653727191#0"  departLane="best" type="bus_bus" departSpeed="max"/>
    <trip id="bus9" depart="1924.05" from="1392084244#0" to="-564298126#9" via="-653727191#1"  departLane="best" type="bus_bus" departSpeed="max"/>
    <trip id="bus10" depart="2137.83" from="-1392084250" to="653727192" via="712245744#0"  departLane="best" type="bus_bus" departSpeed="max"/>
    <trip id="bus11" depart="2351.62" from="-1392084250" to="653727192" via="712245744#0"  departLane="best" type="bus_bus" departSpeed="max"/>
    <trip id="bus12" depart="2565.40" from="1392084244#0" to="1054315845#0" via="-653727191#1"  departLane="best" type="bus_bus" departSpeed="max"/>
    <trip id="bus13" depart="2779.18" from="1392084244#0" to="-564298126#9" via="653727191#0"  departLane="best" type="bus_bus" departSpeed="max"/>
    <trip id="bus14" depart="2992.97" from="1392084244#0" to="-564298126#9" via="653727191#0"  departLane="best" type="bus_bus" departSpeed="max"/>
    <trip id="bus15" depart="3206.75" from="1392084244#0" to="-564298126#9" via="653727191#0"  departLane="best" type="bus_bus" departSpeed="max"/>
    <trip id="bus16" depart="3420.53" from="1392084244#0" to="-564298126#9" via="-653727191#1"  departLane="best" type="bus_bus" departSpeed="max"/>
</routes>
