<?xml version="1.0" encoding="UTF-8"?>

<!-- generated on 2025-09-17 21:39:59 by Eclipse SUMO netedit Version 1.24.0
-->

<additional xmlns:xsi="http://www.w3.org/2001/XMLSchema-instance" xsi:noNamespaceSchemaLocation="http://sumo.dlr.de/xsd/additional_file.xsd">
    <!-- Shapes -->
    <poly id="10272197" type="amenity.motorcycle_parking" color="237,199,199" fill="1" layer="-1.00" shape="99.707554,346.782064 116.199411,346.988929 116.147591,344.809185 116.109717,342.983461 115.510215,309.665954 115.276553,297.992312 112.424492,282.955538 110.347727,273.821640 109.109568,271.641423 98.215524,273.907849 99.707554,346.782064"/>
    <poly id="1049798726" type="landuse.residential" color="235,235,227" fill="1" layer="-3.00" shape="539.689922,313.451529 542.110432,304.299669 545.334583,292.141487"/>
    <poly id="1049798734" type="building.retail" color="255,230,230" fill="1" layer="-1.00" shape="508.627217,399.077233 508.263893,404.293037 517.264886,405.020690 510.152762,385.108126 507.457438,386.415928 509.199378,390.672267 508.627217,399.077233"/>
    <poly id="1050761104" type="amenity.parking" color="184,184,179" fill="1" layer="-1.00" shape="534.826655,364.347805 526.095216,368.454027 534.826655,364.347805"/>
    <poly id="1051003438" type="amenity.parking" color="184,184,179" fill="1" layer="-1.00" shape="454.820368,215.047615 462.074918,215.846164 468.530661,216.563300 473.723678,229.277275 476.314743,235.628778 475.218326,236.036965 486.553203,262.651695 478.144660,266.688648 454.820368,215.047615"/>
    <poly id="1051003442" type="building.yes" color="255,230,230" fill="1" layer="-1.00" shape="478.365350,217.648728 484.443257,218.324969 482.062878,213.830846 478.920884,213.427243 478.365350,217.648728"/>
    <poly id="1051003443" type="building.roof" color="255,230,230" fill="1" layer="-1.00" shape="465.159655,238.860193 468.073453,245.120282 469.695325,244.375399 466.792312,238.115214 465.159655,238.860193"/>
    <poly id="1051003447" type="amenity.fuel" color="237,199,199" fill="0" layer="-1.00" shape="545.334583,292.141487 544.002302,292.706712 540.435338,294.232549"/>
    <poly id="1051003447#1" type="landuse.retail" color="194,194,130" fill="0" layer="-3.00" shape="545.334583,292.141487 544.002302,292.706712 540.435338,294.232549"/>
    <poly id="1051003450" type="building.roof" color="255,230,230" fill="1" layer="-1.00" shape="524.774182,274.694986 528.726511,283.734710 535.022249,281.022513 531.080608,271.971626 524.774182,274.694986"/>
    <poly id="1051003451" type="building.yes" color="255,230,230" fill="1" layer="-1.00" shape="540.589047,284.857419 542.614919,289.509643 546.430013,287.992661 547.733924,283.034085 547.231845,282.363472 540.589047,284.857419"/>
    <poly id="1051003452" type="building.yes" color="255,230,230" fill="1" layer="-1.00" shape="544.002302,292.706712 540.435338,294.232549 538.418474,289.381039 536.798513,285.499889 540.225680,284.019565 540.589047,284.857419 542.614919,289.509643 544.002302,292.706712"/>
    <poly id="1051003453" type="building.yes" color="255,230,230" fill="1" layer="-1.00" shape="534.733380,290.963266 536.954450,295.735487 540.435338,294.232549 538.418474,289.381039 534.733380,290.963266"/>
    <poly id="1051003454" type="building.yes" color="255,230,230" fill="1" layer="-1.00" shape="536.954450,295.735487 533.484247,297.227262 530.383691,290.581488 533.820754,289.001471 534.733380,290.963266 536.954450,295.735487"/>
    <poly id="1051003455" type="building.commercial" color="255,230,230" fill="1" layer="-1.00" shape="517.919327,293.326536 529.229280,288.112766 530.383691,290.581488 533.484247,297.227262 522.163513,302.441127 517.919327,293.326536"/>
    <poly id="1051003455#1" type="shop.car_repair" color="237,199,255" fill="1" layer="-1.00" shape="517.919327,293.326536 529.229280,288.112766 530.383691,290.581488 533.484247,297.227262 522.163513,302.441127 517.919327,293.326536"/>
    <poly id="1051178085" type="amenity.parking" color="184,184,179" fill="1" layer="-1.00" shape="473.659157,413.167422 479.555664,414.066613 487.345485,363.620096 481.459751,362.720806 473.659157,413.167422"/>
    <poly id="1051178086" type="building.roof" color="255,230,230" fill="1" layer="-1.00" shape="481.459751,362.720806 482.193475,357.922246 450.054172,353.018370 449.309768,357.828094 481.459751,362.720806"/>
    <poly id="1051178087" type="building.yes" color="255,230,230" fill="1" layer="-1.00" shape="448.422875,363.590853 441.519920,408.263566 431.152449,406.684899 434.435402,385.406942 432.955931,385.187727 434.589571,371.250847 435.570709,362.753693 448.422875,363.590853"/>
    <poly id="1051178090" type="amenity.parking" color="184,184,179" fill="1" layer="-1.00" shape="506.611946,382.306535 509.930568,380.749703 499.917780,359.678827 496.599156,361.235660 506.611946,382.306535"/>
    <poly id="1052687300" type="amenity.parking" color="184,184,179" fill="1" layer="-1.00" shape="484.561844,332.037511 482.843416,332.838589 472.610669,311.293799 465.895081,297.154688 469.643296,295.394815 486.602410,331.078623 484.561844,332.037511"/>
    <poly id="1055297686" type="amenity.fountain" color="237,199,199" fill="1" layer="-1.00" shape="385.491918,162.676919 385.505511,165.410352 386.246622,166.278038 387.292745,167.486081 390.003880,167.948851 392.375013,166.566462 393.301113,163.990654 392.340006,161.431676 389.955281,160.080632 387.252632,160.569549 385.491918,162.676919"/>
    <poly id="1055297690" type="man_made.water_tower" color="255,230,230" fill="1" layer="-1.00" shape="375.061728,256.861772 376.738011,256.171733 378.415847,256.865058 379.110142,258.529986 378.413204,260.196255 376.747705,260.886199 375.069869,260.192874 374.375574,258.527946 375.061728,256.861772"/>
    <poly id="1055297691" type="building.yes" color="255,230,230" fill="1" layer="-1.00" shape="393.167536,275.990111 387.353181,262.540199 382.783075,251.956616 389.476635,249.108029 399.850207,273.130556 393.167536,275.990111"/>
    <poly id="1055297693" type="building.hotel" color="255,230,230" fill="1" layer="-1.00" shape="359.968696,290.153201 363.776823,295.110461 371.584744,298.704002 379.532514,295.003129 372.117265,277.395230 369.071048,276.846916 359.968696,290.153201"/>
    <poly id="1055297694" type="building.house" color="255,230,230" fill="1" layer="-1.00" shape="390.573212,223.323153 392.077465,226.319968 400.114359,242.284409 401.831598,246.186820 398.458252,247.655617 389.545216,230.193875 390.573212,223.323153"/>
    <poly id="1055297696" type="building.retail" color="255,230,230" fill="1" layer="-1.00" shape="418.230741,214.222893 430.091980,226.080576 432.289985,228.263314 419.419691,233.867320 409.245924,238.296316 400.114359,242.284409 392.077465,226.319968 418.230741,214.222893"/>
    <poly id="1055297697" type="amenity.parking" color="184,184,179" fill="1" layer="-1.00" shape="436.393626,237.334881 442.147425,250.043851 429.567224,255.523529 420.919068,259.297031 418.845652,260.200882 413.220658,247.424365 416.142754,246.147734 418.280678,245.221173 423.308446,243.029337 431.172435,239.605907 436.393626,237.334881"/>
    <poly id="1058045062" type="man_made.bridge" color="255,230,230" fill="1" layer="-1.00" shape="386.381387,139.063028 367.173524,134.232037 366.946493,132.961354 365.735231,127.748522 364.534653,122.524528 364.321268,121.574667 381.190582,126.603585 381.609356,127.606950 383.835401,132.932469 386.061544,138.269055 386.381387,139.063028"/>
    <poly id="1060234153" type="natural.water" color="181,209,209" fill="1" layer="-4.00" shape="312.318549,57.739101 300.406133,60.711728 288.752241,63.648855 285.732697,63.675794 283.022338,63.301562 279.679787,62.180413 273.250563,58.397515 267.474624,54.099707 260.889328,47.330107 256.827287,41.722166 254.641086,36.031086 251.802591,24.922981 248.600100,14.116934"/>
    <poly id="1060234154" type="building.retail" color="255,230,230" fill="1" layer="-1.00" shape="337.541958,18.757388 333.990508,19.608025 332.367097,12.926955 335.918548,12.076318 337.541958,18.757388"/>
    <poly id="1060234155" type="amenity.pharmacy" color="237,199,199" fill="1" layer="-1.00" shape="338.088613,22.006218 334.774020,22.810473 333.990508,19.608025 337.541958,18.757388 338.564276,18.504796 339.347787,21.707244 338.088613,22.006218"/>
    <poly id="1060234155#1" type="building.retail" color="255,230,230" fill="1" layer="-1.00" shape="338.088613,22.006218 334.774020,22.810473 333.990508,19.608025 337.541958,18.757388 338.564276,18.504796 339.347787,21.707244 338.088613,22.006218"/>
    <poly id="1060234156" type="building.retail" color="255,230,230" fill="1" layer="-1.00" shape="335.270300,40.967034 336.473378,45.261375 341.368492,43.911805 346.962796,42.356794 345.759720,38.062452 335.270300,40.967034"/>
    <poly id="1060234160" type="building.yes" color="255,230,230" fill="1" layer="-1.00" shape="289.258484,33.353884 290.668436,33.031429 293.273055,32.432707 295.308519,40.570947 290.993278,41.638678 290.474306,39.075758 289.258484,33.353884"/>
    <poly id="1060234161" type="building.yes" color="255,230,230" fill="1" layer="-1.00" shape="289.258484,33.353884 279.591640,35.376857 280.312429,38.801205 281.378080,38.570357 281.862430,40.879045 290.474306,39.075758 289.258484,33.353884"/>
    <poly id="1060234162" type="building.yes" color="255,230,230" fill="1" layer="-1.00" shape="279.679787,62.180413 273.250563,58.397515 267.474624,54.099707 260.889328,47.330107 260.781157,43.667885 263.261542,41.233142 265.071647,43.452531 271.335716,38.394345 278.675283,46.297122 272.655947,53.400524 279.393939,57.944291 281.353560,58.790036 279.679787,62.180413"/>
    <poly id="1060234163" type="building.yes" color="255,230,230" fill="1" layer="-1.00" shape="297.780061,50.442821 286.126165,53.379948 288.752241,63.648855 300.406133,60.711728 297.780061,50.442821"/>
    <poly id="1060234164" type="amenity.fast_food" color="237,199,199" fill="1" layer="-1.00" shape="331.681276,26.722585 332.898890,31.437344 340.054522,29.602796 338.826224,24.899199 331.681276,26.722585"/>
    <poly id="1060234164#1" type="building.retail" color="255,230,230" fill="1" layer="-1.00" shape="331.681276,26.722585 332.898890,31.437344 340.054522,29.602796 338.826224,24.899199 331.681276,26.722585"/>
    <poly id="1060234165" type="building.retail" color="255,230,230" fill="1" layer="-1.00" shape="330.910424,23.730297 331.681276,26.722585 338.826224,24.899199 338.088613,22.006218 334.774020,22.810473 330.910424,23.730297"/>
    <poly id="1060234165#1" type="shop.convenience" color="237,199,255" fill="1" layer="-1.00" shape="330.910424,23.730297 331.681276,26.722585 338.826224,24.899199 338.088613,22.006218 334.774020,22.810473 330.910424,23.730297"/>
    <poly id="1060234166" type="building.retail" color="255,230,230" fill="1" layer="-1.00" shape="342.941398,34.048125 334.150138,36.295674 332.898890,31.437344 340.054522,29.602796 341.679367,29.189891 342.941398,34.048125"/>
    <poly id="1060234167" type="building.retail" color="255,230,230" fill="1" layer="-1.00" shape="341.368492,43.911805 342.615495,48.294291 348.823702,46.645268 347.543558,42.174541 346.962796,42.356794 341.368492,43.911805"/>
    <poly id="1060234168" type="building.retail" color="255,230,230" fill="1" layer="-1.00" shape="336.473378,45.261375 341.368492,43.911805 342.615495,48.294291 337.526169,49.634527 336.473378,45.261375"/>
    <poly id="1060234169" type="amenity.shelter" color="237,199,199" fill="1" layer="-1.00" shape="378.832148,104.014692 380.249148,106.901615 381.559475,106.292310 380.153258,103.405291 378.832148,104.014692"/>
    <poly id="1060234169#1" type="building.roof" color="255,230,230" fill="1" layer="-1.00" shape="378.832148,104.014692 380.249148,106.901615 381.559475,106.292310 380.153258,103.405291 378.832148,104.014692"/>
    <poly id="1060234170" type="building.house" color="255,230,230" fill="1" layer="-1.00" shape="333.394821,66.482187 334.080781,69.630171 338.106526,68.753168 337.420566,65.605185 333.394821,66.482187"/>
    <poly id="1060234171" type="building.retail" color="255,230,230" fill="1" layer="-1.00" shape="349.614366,76.043298 351.609446,74.819198 349.422060,70.201625 348.508966,70.608182 344.502198,72.403576 341.644787,73.679636 338.486606,75.091183 355.514321,95.457571 359.880243,92.817881 349.614366,76.043298"/>
    <poly id="1060234172" type="building.retail" color="255,230,230" fill="1" layer="-1.00" shape="336.434848,61.497044 340.743078,59.643625 343.844300,66.355782 346.003116,65.351561 348.508966,70.608182 344.502198,72.403576 341.644787,73.679636 336.434848,61.497044"/>
    <poly id="1060234173" type="building.retail" color="255,230,230" fill="1" layer="-1.00" shape="375.763079,120.255250 380.091424,125.495618 386.408269,122.727864 383.397779,116.512911 375.763079,120.255250"/>
    <poly id="1060234174" type="building.retail" color="255,230,230" fill="1" layer="-1.00" shape="383.397779,116.512911 376.057144,101.228416 364.315167,106.379699 375.763079,120.255250 383.397779,116.512911"/>
    <poly id="1060234175" type="building.retail" color="255,230,230" fill="1" layer="-1.00" shape="332.862479,60.001659 334.746829,64.500197 336.992609,63.572670 335.108259,59.074131 332.862479,60.001659"/>
    <poly id="1060234176" type="building.retail" color="255,230,230" fill="1" layer="-1.00" shape="329.319920,57.011960 330.580892,60.542160 332.967655,59.701911 331.706683,56.171711 329.319920,57.011960"/>
    <poly id="1060234177" type="building.retail" color="255,230,230" fill="1" layer="-1.00" shape="335.102534,58.432295 339.335572,56.612747 337.961010,53.647978 332.589102,55.953566 331.976680,56.213570 333.276050,59.212211 335.102534,58.432295"/>
    <poly id="1060234178" type="building.retail" color="255,230,230" fill="1" layer="-1.00" shape="339.335572,56.612747 335.102534,58.432295 336.434848,61.497044 340.743078,59.643625 339.335572,56.612747"/>
    <poly id="1060234179" type="building.retail" color="255,230,230" fill="1" layer="-1.00" shape="324.306850,54.810070 325.435749,58.042639 331.532065,55.940861 330.403166,52.708292 324.306850,54.810070"/>
    <poly id="1060234180" type="building.retail" color="255,230,230" fill="1" layer="-1.00" shape="336.192002,49.989505 337.961010,53.647978 332.589102,55.953566 330.683183,51.455220 336.192002,49.989505"/>
    <poly id="1060234181" type="building.retail" color="255,230,230" fill="1" layer="-1.00" shape="355.379028,60.940731 346.937481,64.911614 346.003116,65.351561 343.844300,66.355782 340.743078,59.643625 339.335572,56.612747 337.961010,53.647978 336.192002,49.989505 337.526169,49.634527 342.615495,48.294291 348.823702,46.645268 355.379028,60.940731"/>
    <poly id="1060234184" type="building.retail" color="255,230,230" fill="1" layer="-1.00" shape="372.522841,96.744591 363.995330,100.749436 361.533312,95.569894 349.422060,70.201625 346.937481,64.911614 355.379028,60.940731 372.522841,96.744591"/>
    <poly id="1062241774" type="building.yes" color="255,230,230" fill="1" layer="-1.00" shape="72.203500,20.428216 67.433561,10.433006 63.438371,12.316879 68.219096,22.311993 72.203500,20.428216"/>
    <poly id="1062241775" type="building.yes" color="255,230,230" fill="1" layer="-1.00" shape="95.329243,-1.004868 103.355596,-0.744522 102.931400,12.141299 94.905051,11.880954 95.329243,-1.004868"/>
    <poly id="1062241776" type="building.yes" color="255,230,230" fill="1" layer="-1.00" shape="137.149502,4.597957 133.319740,5.683515 130.536871,-4.019567 134.355850,-5.105029 137.149502,4.597957"/>
    <poly id="1062241777" type="amenity.taxi" color="237,199,199" fill="1" layer="-1.00" shape="83.883681,222.120347 89.268144,245.379451 102.280525,242.407949 99.588202,230.767330 96.885192,219.137874 83.883681,222.120347"/>
    <poly id="1062241779" type="natural.water" color="181,209,209" fill="1" layer="-4.00" shape="240.978165,-6.089855 239.127034,-10.489082 237.647719,-15.522448"/>
    <poly id="1062241780" type="amenity.parking" color="184,184,179" fill="1" layer="-1.00" shape="329.454873,9.267611 319.284722,-12.487981 324.279990,-14.701674 334.439352,7.054016 329.454873,9.267611"/>
    <poly id="1062241782" type="building.house" color="255,230,230" fill="1" layer="-1.00" shape="261.960284,16.266468 267.880979,15.029470 269.299707,21.734498 263.368230,22.971592 261.960284,16.266468"/>
    <poly id="1062241783" type="building.house" color="255,230,230" fill="1" layer="-1.00" shape="309.151135,1.292322 313.844617,0.309758 316.299594,11.952504 309.237856,13.432076 306.782776,1.778264 309.151135,1.292322"/>
    <poly id="1062241784" type="building.house" color="255,230,230" fill="1" layer="-1.00" shape="257.135110,39.959762 260.746423,38.566295 258.673164,29.819706 257.887843,27.624375 253.104716,29.437778 257.135110,39.959762"/>
    <poly id="1062241785" type="building.house" color="255,230,230" fill="1" layer="-1.00" shape="320.281521,15.834712 322.453394,24.757495 308.785818,28.044582 306.580502,19.000361 311.638567,17.782136 311.951775,19.040983 314.125623,18.512508 313.856736,17.386070 320.281521,15.834712"/>
    <poly id="1062913289" type="building.school" color="255,230,230" fill="1" layer="-1.00" shape="423.369166,57.523411 425.875394,62.824302 428.990049,61.368886 426.483821,56.067995 423.369166,57.523411"/>
    <poly id="1062913290" type="building.school" color="255,230,230" fill="1" layer="-1.00" shape="435.816803,127.887204 427.145638,127.875981 425.269016,127.870579 423.996400,127.870860 422.703951,125.646846 433.410558,120.493755 433.955908,119.968743 436.313649,124.341328 435.816803,127.887204"/>
    <poly id="1062913291" type="building.yes" color="255,230,230" fill="1" layer="-1.00" shape="427.101469,133.808297 427.131244,129.890307 427.145638,127.875981 435.816803,127.887204 436.722762,127.890193 436.679083,133.877840 428.794860,133.826399 427.101469,133.808297"/>
    <poly id="1063157742" type="amenity.school" color="237,199,199" fill="0" layer="-2.00" shape="416.014624,127.764957 412.786191,121.297404 396.490263,88.651134 394.096311,83.847261"/>
    <poly id="1063157745" type="amenity.school" color="237,199,199" fill="0" layer="-2.00" shape="390.944837,77.545028 385.476276,66.593175 375.922708,47.454954 383.990938,45.158533"/>
    <poly id="1063157746" type="amenity.parking" color="184,184,179" fill="0" layer="-1.00" shape="390.944837,77.545028 395.067961,75.494062 396.807383,74.626391 398.536119,73.769882"/>
    <poly id="1063157747" type="building.school" color="255,230,230" fill="1" layer="-1.00" shape="390.944837,77.545028 394.096311,83.847261 398.134642,81.963057 395.067961,75.494062 390.944837,77.545028"/>
    <poly id="1063636280" type="landuse.commercial" color="209,209,204" fill="1" layer="-3.00" shape="375.680105,34.763244 380.748361,33.478540"/>
    <poly id="1063636283" type="landuse.commercial" color="209,209,204" fill="1" layer="-3.00" shape="380.748361,33.478540 382.114980,33.134343 386.623746,31.998501 396.125575,29.611831 415.086004,24.827821"/>
    <poly id="1063636284" type="building.gatehouse" color="255,230,230" fill="1" layer="-1.00" shape="380.748361,33.478540 382.114980,33.134343 386.623746,31.998501 386.043138,29.779207 380.178635,31.270216 380.748361,33.478540"/>
    <poly id="1063636286" type="amenity.parking" color="184,184,179" fill="1" layer="-1.00" shape="410.475387,7.283437 400.630134,9.861302 392.624721,11.946882 393.092948,13.658095 395.589600,22.721856 413.266232,17.893959 410.475387,7.283437"/>
    <poly id="1063636288" type="man_made.gantry" color="255,230,230" fill="0" layer="-1.00" shape="380.088282,45.326140 377.364694,35.002763"/>
    <poly id="1063636289" type="building.yes" color="255,230,230" fill="0" layer="-1.00" shape="477.707084,-17.110009 489.345636,-14.513394 490.663338,-20.346388"/>
    <poly id="1063636290" type="landuse.retail" color="194,194,130" fill="0" layer="-3.00" shape="407.572851,-3.757702 452.636332,-14.208313"/>
    <poly id="1063636292" type="building.roof" color="255,230,230" fill="1" layer="-1.00" shape="396.717854,31.930624 396.125575,29.611831 415.086004,24.827821 425.965143,22.085806 426.557321,24.393533 396.717854,31.930624"/>
    <poly id="1063636293" type="building.roof" color="255,230,230" fill="1" layer="-1.00" shape="382.114980,33.134343 386.623746,31.998501 396.125575,29.611831 396.717854,31.930624 382.707458,35.475268 382.114980,33.134343"/>
    <poly id="1063636294" type="landuse.retail" color="194,194,130" fill="0" layer="-3.00" shape="407.572851,-3.757702 397.717302,-1.124410 389.626205,1.028337 372.981382,5.459703 363.028980,8.116008"/>
    <poly id="1063636295" type="building.commercial" color="255,230,230" fill="1" layer="-1.00" shape="409.146987,2.237654 399.290948,4.815615 400.630134,9.861302 410.475387,7.283437 409.146987,2.237654"/>
    <poly id="1063636296" type="building.commercial" color="255,230,230" fill="1" layer="-1.00" shape="397.717302,-1.124410 399.290948,4.815615 409.146987,2.237654 407.572851,-3.757702 397.717302,-1.124410"/>
    <poly id="1063636297" type="building.house" color="255,230,230" fill="1" layer="-1.00" shape="441.359995,-17.306156 442.294075,-14.149316 452.244221,-17.060108 451.310241,-20.205881 441.359995,-17.306156"/>
    <poly id="1063636298" type="building.house" color="255,230,230" fill="1" layer="-1.00" shape="440.254978,-21.490704"/>
    <poly id="1063636301" type="building.yes" color="255,230,230" fill="1" layer="-1.00" shape="489.466595,-9.412579 490.285298,-5.889499 503.007057,-8.813906 502.177572,-12.336890 489.466595,-9.412579"/>
    <poly id="1063636302" type="building.yes" color="255,230,230" fill="1" layer="-1.00" shape="488.968585,-3.575824 490.009973,0.731030 501.309904,-1.992566 500.257734,-6.299324 488.968585,-3.575824"/>
    <poly id="1073265507" type="man_made.bridge" color="255,230,230" fill="1" layer="-1.00" shape="356.864796,198.501653 357.608621,202.091802 358.374901,205.781353 359.107152,209.283069 359.895790,213.060957 360.098589,214.033046 345.587202,217.017777 345.406860,216.145091 344.640774,212.477672 343.885769,208.843355 343.130961,205.231171 342.364678,201.541620 342.184335,200.668934 356.695732,197.684202 356.864796,198.501653"/>
    <poly id="10737197" type="amenity.bicycle_parking" color="237,199,199" fill="1" layer="-1.00" shape="99.707554,346.782064 100.216064,359.039805 116.499386,356.426436 116.199411,346.988929 99.707554,346.782064"/>
    <poly id="1075408420" type="building.house" color="255,230,230" fill="1" layer="-1.00" shape="346.864208,-19.484854"/>
    <poly id="1075408422" type="building.yes" color="255,230,230" fill="1" layer="-1.00" shape="365.971072,-18.736692 370.498942,-6.846821 371.835498,-3.306226 383.519833,-7.671225 365.971072,-18.736692"/>
    <poly id="1075408423" type="building.yes" color="255,230,230" fill="1" layer="-1.00" shape="366.865755,-5.486378 365.027692,-4.794898 360.499621,-16.706900 365.971072,-18.736692 370.498942,-6.846821 366.865755,-5.486378"/>
    <poly id="1075408424" type="building.yes" color="255,230,230" fill="1" layer="-1.00" shape="360.499621,-16.706900 351.126072,-13.236795 349.449178,-12.613153 346.864208,-19.484854 365.971072,-18.736692 360.499621,-16.706900"/>
    <poly id="1081060213" type="amenity.parking" color="184,184,179" fill="0" layer="-1.00" shape="147.251299,222.838287 131.343931,226.499634 115.447449,230.171961 114.569286,230.865959 114.255943,232.008662 115.485664,236.867179 116.759707,241.858105 119.351501,244.657057"/>
    <poly id="1205103329" type="building.yes" color="255,230,230" fill="1" layer="-1.00" shape="355.257690,373.795536 312.390027,367.969376 313.937814,360.131177 346.958286,364.672874 348.034180,355.920325 351.017237,353.016287 347.979786,349.822879 344.769279,352.618276 321.246870,348.910401 322.097380,340.281598 352.452163,344.614681 358.876198,351.452133 355.257690,373.795536"/>
    <poly id="1205103330" type="building.yes" color="255,230,230" fill="1" layer="-1.00" shape="344.948150,362.997551 314.871399,358.396391 316.299106,349.186952 346.375966,353.799182 344.948150,362.997551"/>
    <poly id="1205103331" type="building.yes" color="255,230,230" fill="1" layer="-1.00" shape="367.846723,310.069977 365.049405,325.334222 373.319695,326.356088 375.793720,314.746846 385.941441,309.820047 383.403289,303.357409 367.846723,310.069977"/>
    <poly id="1205103332" type="building.yes" color="255,230,230" fill="1" layer="-1.00" shape="374.055127,329.005614 376.307673,315.539088 386.565800,310.899046 393.927459,326.128015 384.935628,330.059537 374.055127,329.005614"/>
    <poly id="1208747669" type="amenity.bank" color="237,199,199" fill="1" layer="-1.00" shape="72.037955,312.245471 71.800350,296.510257 87.534805,295.229823 88.452867,312.287003 72.037955,312.245471"/>
    <poly id="1208747669#1" type="building.yes" color="255,230,230" fill="1" layer="-1.00" shape="72.037955,312.245471 71.800350,296.510257 87.534805,295.229823 88.452867,312.287003 72.037955,312.245471"/>
    <poly id="1208747670" type="amenity.parking" color="184,184,179" fill="1" layer="-1.00" shape="83.929219,209.105098 84.334885,206.224044 88.016560,180.106148 95.252615,212.645032 83.929219,209.105098"/>
    <poly id="1208747671" type="amenity.parking" color="184,184,179" fill="1" layer="-1.00" shape="157.453908,5.390601 78.153183,18.814633 78.977824,27.826908 157.985341,9.347856 157.453908,5.390601"/>
    <poly id="1210087242" type="building.construction" color="255,230,230" fill="1" layer="-1.00" shape="304.185133,263.071815 308.585310,267.902050 328.100347,249.146408 325.665759,232.534386 315.425863,234.385395 311.034774,235.409536 314.814782,252.928118 304.185133,263.071815"/>
    <poly id="1210087243" type="building.yes" color="255,230,230" fill="1" layer="-1.00" shape="247.308266,305.645129 245.857135,314.644510 258.956058,329.833315 263.762667,328.241035 260.028627,323.128188 247.308266,305.645129"/>
    <poly id="1210087244" type="building.yes" color="255,230,230" fill="1" layer="-1.00" shape="266.610289,312.577908 260.028627,323.128188 263.762667,328.241035 271.301082,314.926527 266.610289,312.577908"/>
    <poly id="1210087245" type="building.yes" color="255,230,230" fill="1" layer="-1.00" shape="55.000178,307.672025 37.652588,308.258601 38.791690,341.604503 56.139257,341.017924 55.000178,307.672025"/>
    <poly id="130163029" type="building.retail" color="255,230,230" fill="1" layer="-1.00" shape="376.057144,101.228416 373.639943,96.236612 372.522841,96.744591 363.995330,100.749436 361.533312,95.569894 357.239326,97.810529 364.315167,106.379699 376.057144,101.228416"/>
    <poly id="1305982613" type="building.commercial" color="255,230,230" fill="1" layer="-1.00" shape="286.893248,279.572103 291.722219,284.110766 308.585310,267.902050 304.185133,263.071815 286.893248,279.572103"/>
    <poly id="1305982920" type="amenity.parking" color="184,184,179" fill="1" layer="-1.00" shape="263.540986,284.063424 268.534053,285.236241 274.947920,258.297190 269.954849,257.124371 263.540986,284.063424"/>
    <poly id="1306626104" type="shop.convenience" color="237,199,255" fill="1" layer="-1.00" shape="289.322677,231.541653 284.200842,232.860061 279.423306,234.086862 280.830376,239.486085 283.343473,249.180513 293.253622,246.635208 289.322677,231.541653"/>
    <poly id="1312734911" type="amenity.marketplace" color="237,199,199" fill="0" layer="-1.00" shape="375.993017,124.270529 380.091424,125.495618 386.408269,122.727864"/>
    <poly id="1312734911#1" type="landuse.retail" color="194,194,130" fill="0" layer="-3.00" shape="375.993017,124.270529 380.091424,125.495618 386.408269,122.727864"/>
    <poly id="1312734912" type="amenity.parking" color="184,184,179" fill="0" layer="-1.00" shape="369.438690,156.036004 370.333292,159.602674"/>
    <poly id="1312734925" type="landuse.brownfield" color="194,194,130" fill="0" layer="-3.00" shape="248.600100,14.116934 245.138867,4.530569 240.978165,-6.089855"/>
    <poly id="131292990" type="landuse.retail" color="194,194,130" fill="0" layer="-3.00" shape="230.125885,-6.380363 242.143106,13.267053 246.563174,26.364177 247.354843,38.940327 256.183123,57.764040 273.856566,68.297099 277.449300,70.865796 280.166965,72.058922 283.603928,71.674113 302.725755,68.061675 310.143131,67.763098 316.218123,68.107319 320.836351,69.571238 324.258409,72.351737"/>
    <poly id="131292990#1" type="shop.mall" color="237,199,255" fill="0" layer="-1.00" shape="230.125885,-6.380363 242.143106,13.267053 246.563174,26.364177 247.354843,38.940327 256.183123,57.764040 273.856566,68.297099 277.449300,70.865796 280.166965,72.058922 283.603928,71.674113 302.725755,68.061675 310.143131,67.763098 316.218123,68.107319 320.836351,69.571238 324.258409,72.351737"/>
    <poly id="131292993" type="building.yes" color="255,230,230" fill="1" layer="-1.00" shape="262.233541,77.110556 258.034840,62.229664 276.971376,74.112699 262.233541,77.110556"/>
    <poly id="1364018580" type="natural.grassland" color="140,196,107" fill="1" layer="-4.00" shape="57.294680,261.490887 46.239490,211.909671 78.861066,204.358331 74.033729,198.801520 70.485562,190.355854 67.250306,184.342143 59.260843,180.960582 44.401481,184.833963 34.891010,188.659575 24.030379,203.121615 15.059133,219.016566 7.930906,231.154396 -3.002698,244.687473 4.053460,253.455936 11.954362,272.276800 57.294680,261.490887"/>
    <poly id="1364018581" type="natural.wood" color="140,196,107" fill="1" layer="-4.00" shape="62.002969,147.458285 52.806720,105.563125 28.797499,105.345955 24.857456,117.023680 44.779495,129.351494 10.149325,219.923658 -3.002698,244.687473 7.930906,231.154396 15.059133,219.016566 24.030379,203.121615 34.891010,188.659575 44.401481,184.833963 59.260843,180.960582 67.250306,184.342143 70.485562,190.355854 74.033729,198.801520 78.861066,204.358331 84.334885,206.224044 86.263651,175.838857 81.770663,155.792300 62.002969,147.458285"/>
    <poly id="1364018599" type="landuse.residential" color="235,235,227" fill="1" layer="-3.00" shape="11.954362,272.276800"/>