<?xml version="1.0" encoding="UTF-8"?>

<!-- generated on 2025-09-03 00:52:08.164810 by osmWebWizard.py v1_24_0+0000-b72eb3fabc8
<configuration>
    <net-file value="C:\Users\kgaqu\OneDrive\Documents\4th Year\Capstone 2\v10\osm_importer\osm_scenarios\2025-09-03-00-52-05\osm.net.xml.gz"/>
    <output-trip-file value="C:\Users\kgaqu\OneDrive\Documents\4th Year\Capstone 2\v10\osm_importer\osm_scenarios\2025-09-03-00-52-05\osm.bus.trips.xml"/>
    <route-file value="C:\Users\kgaqu\OneDrive\Documents\4th Year\Capstone 2\v10\osm_importer\osm_scenarios\2025-09-03-00-52-05\osm.bus.rou.xml"/>
    <prefix value="bus"/>
    <trip-attributes value="departLane=&quot;best&quot;"/>
    <fringe-start-attributes value="departSpeed=&quot;max&quot;"/>
    <vehicle-class value="bus"/>
    <fringe-factor value="5"/>
    <edge-permission value="bus"/>
    <via-edge-types value="highway.motorway,highway.motorway_link,highway.trunk_link,highway.primary_link,highway.secondary_link,highway.tertiary_link"/>
    <seed value="43"/>
    <min-distance value="600.0"/>
    <min-distance.fringe value="10.0"/>
    <remove-loops value="True"/>
    <insertion-density value="4.0"/>
</configuration>
-->

<routes xmlns:xsi="http://www.w3.org/2001/XMLSchema-instance" xsi:noNamespaceSchemaLocation="http://sumo.dlr.de/xsd/routes_file.xsd">
    <vType id="bus_bus" vClass="bus"/>
    <trip id="bus0" depart="0.00" from="-587063887#6" to="-333292211#2" departLane="best" type="bus_bus" departSpeed="max"/>
    <trip id="bus1" depart="115.72" from="1296098178" to="587063887#0" departLane="best" type="bus_bus" departSpeed="max"/>
    <trip id="bus2" depart="231.43" from="-1252226314" to="-333292211#2" departLane="best" type="bus_bus"/>
    <trip id="bus3" depart="347.15" from="587063904" to="587063887#0" departLane="best" type="bus_bus" departSpeed="max"/>
    <trip id="bus4" depart="462.87" from="-1293084433" to="587063887#0" departLane="best" type="bus_bus"/>
    <trip id="bus5" depart="578.59" from="587063904" to="1252226318#0" departLane="best" type="bus_bus" departSpeed="max"/>
    <trip id="bus6" depart="694.30" from="1296098178" to="587063887#0" departLane="best" type="bus_bus" departSpeed="max"/>
    <trip id="bus7" depart="810.02" from="1296098178" to="587063887#0" departLane="best" type="bus_bus" departSpeed="max"/>
    <trip id="bus8" depart="925.74" from="1296098178" to="-333292211#2" departLane="best" type="bus_bus" departSpeed="max"/>
    <trip id="bus9" depart="1041.46" from="587063904" to="1252226318#0" departLane="best" type="bus_bus" departSpeed="max"/>
    <trip id="bus10" depart="1157.17" from="587063904" to="1252226326" departLane="best" type="bus_bus" departSpeed="max"/>
    <trip id="bus11" depart="1272.89" from="-587063887#6" to="-1296098178" departLane="best" type="bus_bus" departSpeed="max"/>
    <trip id="bus12" depart="1388.61" from="587063904" to="-1296098178" departLane="best" type="bus_bus" departSpeed="max"/>
    <trip id="bus13" depart="1504.33" from="587063904" to="587063887#0" departLane="best" type="bus_bus" departSpeed="max"/>
    <trip id="bus14" depart="1620.04" from="1296098177" to="587063887#0" departLane="best" type="bus_bus"/>
    <trip id="bus15" depart="1735.76" from="1296098178" to="587063887#0" departLane="best" type="bus_bus" departSpeed="max"/>
    <trip id="bus16" depart="1851.48" from="1296098178" to="587063887#0" departLane="best" type="bus_bus" departSpeed="max"/>
    <trip id="bus17" depart="1967.20" from="1252226318#0" to="-333292211#2" departLane="best" type="bus_bus"/>
    <trip id="bus18" depart="2082.91" from="-587063887#6" to="-1296098178" departLane="best" type="bus_bus" departSpeed="max"/>
    <trip id="bus19" depart="2198.63" from="587063904" to="1296098177" departLane="best" type="bus_bus" departSpeed="max"/>
    <trip id="bus20" depart="2314.35" from="587063904" to="1287697069" departLane="best" type="bus_bus" departSpeed="max"/>
    <trip id="bus21" depart="2430.06" from="587063904" to="-1296098178" departLane="best" type="bus_bus" departSpeed="max"/>
    <trip id="bus22" depart="2545.78" from="-587063887#6" to="-1296098178" departLane="best" type="bus_bus" departSpeed="max"/>
    <trip id="bus23" depart="2661.50" from="-587063887#6" to="-333292211#2" departLane="best" type="bus_bus" departSpeed="max"/>
    <trip id="bus24" depart="2777.22" from="1296098177" to="587063887#0" departLane="best" type="bus_bus"/>
    <trip id="bus25" depart="2892.93" from="587063904" to="587063887#0" departLane="best" type="bus_bus" departSpeed="max"/>
    <trip id="bus26" depart="3008.65" from="-587063887#6" to="-1252226314" departLane="best" type="bus_bus" departSpeed="max"/>
    <trip id="bus27" depart="3124.37" from="1252226323" to="-333292211#2" departLane="best" type="bus_bus"/>
    <trip id="bus28" depart="3240.09" from="-587063887#6" to="-1296098178" departLane="best" type="bus_bus" departSpeed="max"/>
    <trip id="bus29" depart="3355.80" from="-587063887#6" to="-1293084433" departLane="best" type="bus_bus" departSpeed="max"/>
    <trip id="bus30" depart="3471.52" from="-587063887#6" to="1296098177" departLane="best" type="bus_bus" departSpeed="max"/>
    <trip id="bus31" depart="3587.24" from="-587063887#6" to="-1296098178" departLane="best" type="bus_bus" departSpeed="max"/>
</routes>
