<?xml version="1.0" encoding="UTF-8"?>

<!-- generated on 2025-09-03 00:52:08.417967 by osmWebWizard.py v1_24_0+0000-b72eb3fabc8
<configuration>
    <net-file value="C:\Users\kgaqu\OneDrive\Documents\4th Year\Capstone 2\v10\osm_importer\osm_scenarios\2025-09-03-00-52-05\osm.net.xml.gz"/>
    <output-trip-file value="C:\Users\kgaqu\OneDrive\Documents\4th Year\Capstone 2\v10\osm_importer\osm_scenarios\2025-09-03-00-52-05\osm.motorcycle.trips.xml"/>
    <route-file value="C:\Users\kgaqu\OneDrive\Documents\4th Year\Capstone 2\v10\osm_importer\osm_scenarios\2025-09-03-00-52-05\osm.motorcycle.rou.xml"/>
    <prefix value="motorcycle"/>
    <trip-attributes value="departLane=&quot;best&quot;"/>
    <fringe-start-attributes value="departSpeed=&quot;max&quot;"/>
    <vehicle-class value="motorcycle"/>
    <fringe-factor value="2"/>
    <edge-permission value="motorcycle"/>
    <via-edge-types value="highway.motorway,highway.motorway_link,highway.trunk_link,highway.primary_link,highway.secondary_link,highway.tertiary_link"/>
    <seed value="44"/>
    <max-distance value="1200.0"/>
    <remove-loops value="True"/>
    <insertion-density value="4.0"/>
</configuration>
-->

<routes xmlns:xsi="http://www.w3.org/2001/XMLSchema-instance" xsi:noNamespaceSchemaLocation="http://sumo.dlr.de/xsd/routes_file.xsd">
    <vType id="motorcycle_motorcycle" vClass="motorcycle"/>
    <trip id="motorcycle0" depart="0.00" from="1252226323" to="1252226323" departLane="best" type="motorcycle_motorcycle"/>
    <trip id="motorcycle1" depart="115.72" from="587063900#0" to="-1296098178" departLane="best" type="motorcycle_motorcycle"/>
    <trip id="motorcycle2" depart="231.43" from="-587063887#6" to="-1252226314" departLane="best" type="motorcycle_motorcycle" departSpeed="max"/>
    <trip id="motorcycle3" depart="347.15" from="-1293084433" to="-1252226314" departLane="best" type="motorcycle_motorcycle"/>
    <trip id="motorcycle4" depart="462.87" from="-587063887#6" to="1252226323" departLane="best" type="motorcycle_motorcycle" departSpeed="max"/>
    <trip id="motorcycle5" depart="578.59" from="587063904" to="1296098177" departLane="best" type="motorcycle_motorcycle" departSpeed="max"/>
    <trip id="motorcycle6" depart="694.30" from="1252226323" to="1252226316" departLane="best" type="motorcycle_motorcycle"/>
    <trip id="motorcycle7" depart="810.02" from="1296098178" to="-333292211#2" departLane="best" type="motorcycle_motorcycle" departSpeed="max"/>
    <trip id="motorcycle8" depart="925.74" from="-1293084433" to="587063887#0" departLane="best" type="motorcycle_motorcycle"/>
    <trip id="motorcycle9" depart="1041.46" from="1296098177" to="-1293084433" departLane="best" type="motorcycle_motorcycle"/>
    <trip id="motorcycle10" depart="1157.17" from="-1293084433" to="-1293084433" departLane="best" type="motorcycle_motorcycle"/>
    <trip id="motorcycle11" depart="1272.89" from="587063904" to="-1293084433" departLane="best" type="motorcycle_motorcycle" departSpeed="max"/>
    <trip id="motorcycle12" depart="1388.61" from="1296098178" to="587063900#0" departLane="best" type="motorcycle_motorcycle" departSpeed="max"/>
    <trip id="motorcycle13" depart="1504.33" from="-1252226314" to="1252226316" departLane="best" type="motorcycle_motorcycle"/>
    <trip id="motorcycle14" depart="1620.04" from="1252226326" to="587063887#0" departLane="best" type="motorcycle_motorcycle"/>
    <trip id="motorcycle15" depart="1735.76" from="-587063887#6" to="-1252226314" departLane="best" type="motorcycle_motorcycle" departSpeed="max"/>
    <trip id="motorcycle16" depart="1851.48" from="1296098178" to="587063887#0" departLane="best" type="motorcycle_motorcycle" departSpeed="max"/>
    <trip id="motorcycle17" depart="1967.20" from="1252226323" to="-1252226314" departLane="best" type="motorcycle_motorcycle"/>
    <trip id="motorcycle18" depart="2082.91" from="1296098178" to="1296098177" departLane="best" type="motorcycle_motorcycle" departSpeed="max"/>
    <trip id="motorcycle19" depart="2198.63" from="1296098178" to="-333292211#2" departLane="best" type="motorcycle_motorcycle" departSpeed="max"/>
    <trip id="motorcycle20" depart="2314.35" from="587063900#0" to="1287697069" departLane="best" type="motorcycle_motorcycle"/>
    <trip id="motorcycle21" depart="2430.06" from="1296098177" to="1252226323" departLane="best" type="motorcycle_motorcycle"/>
    <trip id="motorcycle22" depart="2545.78" from="-587063887#6" to="1252226318#0" departLane="best" type="motorcycle_motorcycle" departSpeed="max"/>
    <trip id="motorcycle23" depart="2661.50" from="421085682" to="1287697069" departLane="best" type="motorcycle_motorcycle"/>
    <trip id="motorcycle24" depart="2777.22" from="1252226318#0" to="587063887#0" departLane="best" type="motorcycle_motorcycle"/>
    <trip id="motorcycle25" depart="2892.93" from="587063900#0" to="-1252226314" departLane="best" type="motorcycle_motorcycle"/>
    <trip id="motorcycle26" depart="3008.65" from="-587063887#6" to="-1296098178" departLane="best" type="motorcycle_motorcycle" departSpeed="max"/>
    <trip id="motorcycle27" depart="3124.37" from="-1252226314" to="421085682" departLane="best" type="motorcycle_motorcycle"/>
    <trip id="motorcycle28" depart="3240.09" from="1296098178" to="1252226323" departLane="best" type="motorcycle_motorcycle" departSpeed="max"/>
    <trip id="motorcycle29" depart="3355.80" from="587063904" to="-333292211#2" departLane="best" type="motorcycle_motorcycle" departSpeed="max"/>
    <trip id="motorcycle30" depart="3471.52" from="-587063887#6" to="-1293084433" departLane="best" type="motorcycle_motorcycle" departSpeed="max"/>
    <trip id="motorcycle31" depart="3587.24" from="1252226318#0" to="587063887#0" departLane="best" type="motorcycle_motorcycle"/>
</routes>
