<?xml version="1.0" encoding="UTF-8"?>

<!-- generated on 2025-09-17 21:40:08.045627 by randomTrips.py v1_24_0+0000-b72eb3fabc8
<configuration>
    <net-file value="osm.net.xml.gz"/>
    <output-trip-file value="osm.passenger.trips.xml"/>
    <route-file value="osm.passenger.rou.xml"/>
    <prefix value="veh"/>
    <trip-attributes value="departLane=&quot;best&quot;"/>
    <fringe-start-attributes value="departSpeed=&quot;max&quot;"/>
    <vehicle-class value="passenger"/>
    <lanes value="True"/>
    <fringe-factor value="5"/>
    <allow-fringe.min-length value="1000.0"/>
    <edge-permission value="passenger"/>
    <via-edge-types value="highway.motorway,highway.motorway_link,highway.trunk_link,highway.primary_link,highway.secondary_link,highway.tertiary_link"/>
    <seed value="44"/>
    <min-distance value="300.0"/>
    <min-distance.fringe value="10.0"/>
    <remove-loops value="True"/>
    <insertion-density value="12.0"/>
</configuration>
-->

<!-- generated on 2025-09-17 21:40:07 by Eclipse SUMO duarouter Version 1.24.0
<duarouterConfiguration xmlns:xsi="http://www.w3.org/2001/XMLSchema-instance" xsi:noNamespaceSchemaLocation="http://sumo.dlr.de/xsd/duarouterConfiguration.xsd">

    <input>
        <net-file value="osm.net.xml.gz"/>
        <route-files value="osm.passenger.trips.xml"/>
    </input>

    <output>
        <output-file value="osm.passenger.rou.xml"/>
        <alternatives-output value="NUL"/>
    </output>

    <processing>
        <remove-loops value="true"/>
    </processing>

    <time>
        <begin value="0.0"/>
        <end value="3600.0"/>
    </time>

    <report>
        <no-warnings value="true"/>
        <ignore-errors value="true"/>
        <no-step-log value="true"/>
    </report>

</duarouterConfiguration>
-->

<routes xmlns:xsi="http://www.w3.org/2001/XMLSchema-instance" xsi:noNamespaceSchemaLocation="http://sumo.dlr.de/xsd/routes_file.xsd">
    <vType id="veh_passenger" vClass="passenger"/>
    <vehicle id="veh0" type="veh_passenger" depart="0.00" departLane="best" departSpeed="max">
        <route edges="587063904 1252226326 587063900#0 -1252226314 -1293084433"/>
    </vehicle>
    <vehicle id="veh1" type="veh_passenger" depart="87.42" departLane="best" departSpeed="max">
        <route edges="-587063887#5 1252226318#0 587063900#0 -1252226314"/>
    </vehicle>
    <vehicle id="veh2" type="veh_passenger" depart="174.83" departLane="best" departSpeed="max">
        <route edges="-587063887#5 1252226318#0 587063900#0 -1252226314"/>
    </vehicle>
    <vehicle id="veh3" type="veh_passenger" depart="262.25" departLane="best" departSpeed="max">
        <route edges="1296098177 1287697069 1252226323 421085682 -333292211#2"/>
    </vehicle>
    <vehicle id="veh4" type="veh_passenger" depart="349.67" departLane="best" departSpeed="max">
        <route edges="-587063887#5 1252226318#0 587063900#0 -1252226314 -1293084433"/>
    </vehicle>
    <vehicle id="veh5" type="veh_passenger" depart="437.08" departLane="best" departSpeed="max">
        <route edges="587063904 1252226326 587063900#0 -1252226314 -1293084433"/>
    </vehicle>
    <vehicle id="veh6" type="veh_passenger" depart="524.50" departLane="best" departSpeed="max">
        <route edges="1296098177 1287697069 1252226323"/>
    </vehicle>
    <vehicle id="veh7" type="veh_passenger" depart="611.92" departLane="best">
        <route edges="1287697069 1252226323 1252226316 587063887#0"/>
    </vehicle>
    <vehicle id="veh8" type="veh_passenger" depart="699.33" departLane="best" departSpeed="max">
        <route edges="-587063887#5 1252226318#0 421085682 -333292211#2"/>
    </vehicle>
    <vehicle id="veh9" type="veh_passenger" depart="786.75" departLane="best" departSpeed="max">
        <route edges="-587063887#5 1252226318#0 587063900#0 -1252226314 -1293084433"/>
    </vehicle>
    <vehicle id="veh10" type="veh_passenger" depart="874.17" departLane="best" departSpeed="max">
        <route edges="1296098177 1287697069 1252226323 1252226316 587063887#0"/>
    </vehicle>
    <vehicle id="veh11" type="veh_passenger" depart="961.58" departLane="best">
        <route edges="1252226326 587063900#0 -1252226314 -1293084433"/>
    </vehicle>
    <vehicle id="veh12" type="veh_passenger" depart="1049.00" departLane="best" departSpeed="max">
        <route edges="1296098177 1287697069 1252226323 421085682 -333292211#2"/>
    </vehicle>
    <vehicle id="veh13" type="veh_passenger" depart="1136.42" departLane="best" departSpeed="max">
        <route edges="1296098177 1287697069 1252226323 1252226316"/>
    </vehicle>
    <vehicle id="veh14" type="veh_passenger" depart="1223.83" departLane="best" departSpeed="max">
        <route edges="-587063887#5 1252226318#0 421085682 -333292211#2"/>
    </vehicle>
    <vehicle id="veh15" type="veh_passenger" depart="1311.25" departLane="best" departSpeed="max">
        <route edges="587063904 1252226326 587063900#0 -1252226314 -1293084433"/>
    </vehicle>
    <vehicle id="veh16" type="veh_passenger" depart="1398.67" departLane="best" departSpeed="max">
        <route edges="-587063887#5 1252226318#0 587063900#0 -1252226314 -1293084433"/>
    </vehicle>
    <vehicle id="veh17" type="veh_passenger" depart="1486.08" departLane="best" departSpeed="max">
        <route edges="1296098177 1287697069 1252226323 1252226316"/>
    </vehicle>
    <vehicle id="veh18" type="veh_passenger" depart="1573.50" departLane="best" departSpeed="max">
        <route edges="-587063887#5 1252226318#0 587063900#0 -1252226314 -1293084433"/>
    </vehicle>
    <vehicle id="veh19" type="veh_passenger" depart="1660.92" departLane="best">
        <route edges="1252226326 587063900#0 -1252226314 -1293084433"/>
    </vehicle>
    <vehicle id="veh20" type="veh_passenger" depart="1748.33" departLane="best" departSpeed="max">
        <route edges="587063904 1252226326 1252226316 587063887#0"/>
    </vehicle>
    <vehicle id="veh21" type="veh_passenger" depart="1835.75" departLane="best">
        <route edges="1252226318#0 587063900#0 -1252226314 -1293084433"/>
    </vehicle>
    <vehicle id="veh22" type="veh_passenger" depart="1923.17" departLane="best" departSpeed="max">
        <route edges="1296098177 1287697069 1252226323 1252226316 587063887#0"/>
    </vehicle>
    <vehicle id="veh23" type="veh_passenger" depart="2010.58" departLane="best" departSpeed="max">
        <route edges="1296098177 1287697069 1252226323 1252226316"/>
    </vehicle>
    <vehicle id="veh24" type="veh_passenger" depart="2098.00" departLane="best">
        <route edges="1287697069 1252226323 421085682 -333292211#2"/>
    </vehicle>
    <vehicle id="veh25" type="veh_passenger" depart="2185.42" departLane="best">
        <route edges="1252226318#0 421085682 -333292211#2"/>
    </vehicle>
    <vehicle id="veh26" type="veh_passenger" depart="2272.83" departLane="best" departSpeed="max">
        <route edges="1296098177 1287697069 1252226323 1252226316 587063887#0"/>
    </vehicle>
    <vehicle id="veh27" type="veh_passenger" depart="2360.25" departLane="best" departSpeed="max">
        <route edges="-587063887#5 1252226318#0 421085682 -333292211#2"/>
    </vehicle>
    <vehicle id="veh28" type="veh_passenger" depart="2447.67" departLane="best" departSpeed="max">
        <route edges="-587063887#5 1252226318#0 421085682 -333292211#2"/>
    </vehicle>
    <vehicle id="veh29" type="veh_passenger" depart="2535.08" departLane="best" departSpeed="max">
        <route edges="1296098177 1287697069 1252226323 1252226316 587063887#0"/>
    </vehicle>
    <vehicle id="veh30" type="veh_passenger" depart="2622.50" departLane="best" departSpeed="max">
        <route edges="1296098177 1287697069 1252226323 1252226316 587063887#0"/>
    </vehicle>
    <vehicle id="veh31" type="veh_passenger" depart="2709.92" departLane="best" departSpeed="max">
        <route edges="1296098177 1287697069 1252226323 1252226316"/>
    </vehicle>
    <vehicle id="veh32" type="veh_passenger" depart="2797.33" departLane="best">
        <route edges="1252226318#0 421085682 -333292211#2"/>
    </vehicle>
    <vehicle id="veh33" type="veh_passenger" depart="2884.75" departLane="best">
        <route edges="1287697069 1252226323 1252226316 587063887#0"/>
    </vehicle>
    <vehicle id="veh34" type="veh_passenger" depart="2972.17" departLane="best" departSpeed="max">
        <route edges="1296098177 1287697069 1252226323 421085682 -333292211#2"/>
    </vehicle>
    <vehicle id="veh35" type="veh_passenger" depart="3059.58" departLane="best" departSpeed="max">
        <route edges="-587063887#5 1252226318#0 587063900#0 -1252226314 -1293084433"/>
    </vehicle>
    <vehicle id="veh36" type="veh_passenger" depart="3147.00" departLane="best" departSpeed="max">
        <route edges="-587063887#5 1252226318#0 587063900#0 -1252226314"/>
    </vehicle>
    <vehicle id="veh37" type="veh_passenger" depart="3234.42" departLane="best" departSpeed="max">
        <route edges="-587063887#5 1252226318#0 421085682 -333292211#2"/>
    </vehicle>
    <vehicle id="veh38" type="veh_passenger" depart="3321.83" departLane="best" departSpeed="max">
        <route edges="1296098177 1287697069 1252226323"/>
    </vehicle>
    <vehicle id="veh39" type="veh_passenger" depart="3409.25" departLane="best">
        <route edges="1252226318#0 587063900#0 -1252226314 -1293084433"/>
    </vehicle>
    <vehicle id="veh40" type="veh_passenger" depart="3496.67" departLane="best" departSpeed="max">
        <route edges="1296098177 1287697069"/>
    </vehicle>
    <vehicle id="veh41" type="veh_passenger" depart="3584.08" departLane="best" departSpeed="max">
        <route edges="587063904 1252226326 587063900#0 -1252226314"/>
    </vehicle>
</routes>
