<?xml version="1.0" encoding="UTF-8"?>

<!-- generated on 2025-09-03 00:52:09.542516 by osmWebWizard.py v1_24_0+0000-b72eb3fabc8
<configuration>
    <net-file value="C:\Users\kgaqu\OneDrive\Documents\4th Year\Capstone 2\v10\osm_importer\osm_scenarios\2025-09-03-00-52-05\osm.net.xml.gz"/>
    <output-trip-file value="C:\Users\kgaqu\OneDrive\Documents\4th Year\Capstone 2\v10\osm_importer\osm_scenarios\2025-09-03-00-52-05\osm.pedestrian.trips.xml"/>
    <route-file value="C:\Users\kgaqu\OneDrive\Documents\4th Year\Capstone 2\v10\osm_importer\osm_scenarios\2025-09-03-00-52-05\osm.pedestrian.rou.xml"/>
    <pedestrians value="True"/>
    <prefix value="ped"/>
    <vehicle-class value="pedestrian"/>
    <fringe-factor value="1"/>
    <seed value="46"/>
    <max-distance value="2000.0"/>
    <insertion-density value="10.0"/>
</configuration>
-->

<!-- generated on 2025-09-03 00:52:09 by Eclipse SUMO duarouter Version 1.24.0
<duarouterConfiguration xmlns:xsi="http://www.w3.org/2001/XMLSchema-instance" xsi:noNamespaceSchemaLocation="http://sumo.dlr.de/xsd/duarouterConfiguration.xsd">

    <input>
        <net-file value="C:\Users\kgaqu\OneDrive\Documents\4th Year\Capstone 2\v10\osm_importer\osm_scenarios\2025-09-03-00-52-05\osm.net.xml.gz"/>
        <route-files value="C:\Users\kgaqu\OneDrive\Documents\4th Year\Capstone 2\v10\osm_importer\osm_scenarios\2025-09-03-00-52-05\osm.pedestrian.trips.xml"/>
    </input>

    <output>
        <output-file value="C:\Users\kgaqu\OneDrive\Documents\4th Year\Capstone 2\v10\osm_importer\osm_scenarios\2025-09-03-00-52-05\osm.pedestrian.rou.xml"/>
        <alternatives-output value="NUL"/>
    </output>

    <time>
        <begin value="0.0"/>
        <end value="3600.0"/>
    </time>

    <report>
        <no-warnings value="true"/>
        <ignore-errors value="true"/>
        <no-step-log value="true"/>
    </report>

</duarouterConfiguration>
-->

<routes xmlns:xsi="http://www.w3.org/2001/XMLSchema-instance" xsi:noNamespaceSchemaLocation="http://sumo.dlr.de/xsd/routes_file.xsd">
    <vType id="ped_pedestrian" vClass="pedestrian"/>
    <person id="ped0" type="ped_pedestrian" depart="0.00">
        <walk edges="1252226318#0 587063887#0"/>
    </person>
    <person id="ped1" type="ped_pedestrian" depart="69.70">
        <walk edges="-1296098178"/>
    </person>
    <person id="ped2" type="ped_pedestrian" depart="139.40">
        <walk edges="-587063887#6 587063887#0"/>
    </person>
    <person id="ped3" type="ped_pedestrian" depart="209.10">
        <walk edges="587063904"/>
    </person>
    <person id="ped4" type="ped_pedestrian" depart="278.80">
        <walk edges="1252226318#0 587063887#0"/>
    </person>
    <person id="ped5" type="ped_pedestrian" depart="348.50">
        <walk edges="-587063887#6 587063887#0"/>
    </person>
    <person id="ped6" type="ped_pedestrian" depart="418.20">
        <walk edges="1296098178 -1296098178"/>
    </person>
    <person id="ped7" type="ped_pedestrian" depart="487.90">
        <walk edges="1252226318#0 -587063887#6"/>
    </person>
    <person id="ped8" type="ped_pedestrian" depart="557.61">
        <walk edges="587063887#0 1252226318#0"/>
    </person>
    <person id="ped9" type="ped_pedestrian" depart="627.31">
        <walk edges="-587063887#6 1252226318#0"/>
    </person>
    <person id="ped10" type="ped_pedestrian" depart="697.01">
        <walk edges="1296098178 -1296098178"/>
    </person>
    <person id="ped11" type="ped_pedestrian" depart="766.71">
        <walk edges="587063887#0 -587063887#6"/>
    </person>
    <person id="ped12" type="ped_pedestrian" depart="836.41">
        <walk edges="1252226316 587063887#0"/>
    </person>
    <person id="ped13" type="ped_pedestrian" depart="906.11">
        <walk edges="-1296098178"/>
    </person>
    <person id="ped14" type="ped_pedestrian" depart="975.81">
        <walk edges="-587063887#6 1252226318#0"/>
    </person>
    <person id="ped15" type="ped_pedestrian" depart="1045.51">
        <walk edges="-333292211#2 587063904"/>
    </person>
    <person id="ped16" type="ped_pedestrian" depart="1115.21">
        <walk edges="587063904"/>
    </person>
    <person id="ped17" type="ped_pedestrian" depart="1184.91">
        <walk edges="587063887#0 -587063887#6"/>
    </person>
    <person id="ped18" type="ped_pedestrian" depart="1254.61">
        <walk edges="-1296098178 1296098178"/>
    </person>
    <person id="ped19" type="ped_pedestrian" depart="1324.31">
        <walk edges="1296098178"/>
    </person>
    <person id="ped20" type="ped_pedestrian" depart="1394.01">
        <walk edges="1296098178 -1296098178"/>
    </person>
    <person id="ped21" type="ped_pedestrian" depart="1463.71">
        <walk edges="-1296098178 1296098178"/>
    </person>
    <person id="ped22" type="ped_pedestrian" depart="1533.42">
        <walk edges="-587063887#6"/>
    </person>
    <person id="ped23" type="ped_pedestrian" depart="1603.12">
        <walk edges="1252226318#0 587063887#0"/>
    </person>
    <person id="ped24" type="ped_pedestrian" depart="1672.82">
        <walk edges="1252226316"/>
    </person>
    <person id="ped25" type="ped_pedestrian" depart="1742.52">
        <walk edges="587063887#0"/>
    </person>
    <person id="ped26" type="ped_pedestrian" depart="1812.22">
        <walk edges="-587063887#6 1252226316"/>
    </person>
    <person id="ped27" type="ped_pedestrian" depart="1881.92">
        <walk edges="1252226318#0 587063887#0"/>
    </person>
    <person id="ped28" type="ped_pedestrian" depart="1951.62">
        <walk edges="-587063887#6 1252226316"/>
    </person>
    <person id="ped29" type="ped_pedestrian" depart="2021.32">
        <walk edges="-587063887#6 587063887#0"/>
    </person>
    <person id="ped30" type="ped_pedestrian" depart="2091.02">
        <walk edges="1252226318#0 -587063887#6"/>
    </person>
    <person id="ped31" type="ped_pedestrian" depart="2160.72">
        <walk edges="1252226318#0 587063887#0"/>
    </person>
    <person id="ped32" type="ped_pedestrian" depart="2230.42">
        <walk edges="-587063887#6 1252226318#0"/>
    </person>
    <person id="ped33" type="ped_pedestrian" depart="2300.12">
        <walk edges="587063887#0"/>
    </person>
    <person id="ped34" type="ped_pedestrian" depart="2369.82">
        <walk edges="1252226316 -587063887#6"/>
    </person>
    <person id="ped35" type="ped_pedestrian" depart="2439.52">
        <walk edges="-587063887#6 1252226318#0"/>
    </person>
    <person id="ped36" type="ped_pedestrian" depart="2509.23">
        <walk edges="587063904 -333292211#2"/>
    </person>
    <person id="ped37" type="ped_pedestrian" depart="2578.93">
        <walk edges="1296098178 -1296098178"/>
    </person>
    <person id="ped38" type="ped_pedestrian" depart="2648.63">
        <walk edges="587063887#0 1252226318#0"/>
    </person>
    <person id="ped39" type="ped_pedestrian" depart="2718.33">
        <walk edges="587063904 -333292211#2"/>
    </person>
    <person id="ped40" type="ped_pedestrian" depart="2788.03">
        <walk edges="-587063887#6 1252226318#0"/>
    </person>
    <person id="ped41" type="ped_pedestrian" depart="2857.73">
        <walk edges="587063887#0"/>
    </person>
    <person id="ped42" type="ped_pedestrian" depart="2927.43">
        <walk edges="-587063887#6 587063887#0"/>
    </person>
    <person id="ped43" type="ped_pedestrian" depart="2997.13">
        <walk edges="1252226316 1252226318#0"/>
    </person>
    <person id="ped44" type="ped_pedestrian" depart="3066.83">
        <walk edges="1252226316 1252226318#0"/>
    </person>
    <person id="ped45" type="ped_pedestrian" depart="3136.53">
        <walk edges="1252226316 1252226318#0"/>
    </person>
    <person id="ped46" type="ped_pedestrian" depart="3206.23">
        <walk edges="587063904 -333292211#2"/>
    </person>
    <person id="ped47" type="ped_pedestrian" depart="3275.93">
        <walk edges="587063904 -333292211#2"/>
    </person>
    <person id="ped48" type="ped_pedestrian" depart="3345.63">
        <walk edges="-587063887#6 587063887#0"/>
    </person>
    <person id="ped49" type="ped_pedestrian" depart="3415.33">
        <walk edges="-587063887#6 1252226316"/>
    </person>
    <person id="ped50" type="ped_pedestrian" depart="3485.04">
        <walk edges="1252226316 -587063887#6"/>
    </person>
    <person id="ped51" type="ped_pedestrian" depart="3554.74">
        <walk edges="587063887#0"/>
    </person>
</routes>
