<?xml version="1.0" encoding="UTF-8"?>

<!-- generated on 2025-09-17 21:40:06.653542 by randomTrips.py v1_24_0+0000-b72eb3fabc8
<configuration>
    <net-file value="osm.net.xml.gz"/>
    <output-trip-file value="osm.bus.trips.xml"/>
    <route-file value="osm.bus.rou.xml"/>
    <prefix value="bus"/>
    <trip-attributes value="departLane=&quot;best&quot;"/>
    <fringe-start-attributes value="departSpeed=&quot;max&quot;"/>
    <vehicle-class value="bus"/>
    <fringe-factor value="5"/>
    <edge-permission value="bus"/>
    <via-edge-types value="highway.motorway,highway.motorway_link,highway.trunk_link,highway.primary_link,highway.secondary_link,highway.tertiary_link"/>
    <min-distance value="600.0"/>
    <min-distance.fringe value="10.0"/>
    <remove-loops value="True"/>
    <insertion-density value="4.0"/>
</configuration>
-->

<routes xmlns:xsi="http://www.w3.org/2001/XMLSchema-instance" xsi:noNamespaceSchemaLocation="http://sumo.dlr.de/xsd/routes_file.xsd">
    <vType id="bus_bus" vClass="bus"/>
    <trip id="bus0" depart="0.00" from="587063904" to="587063887#0" departLane="best" type="bus_bus" departSpeed="max"/>
    <trip id="bus1" depart="262.25" from="587063904" to="-1293084433" departLane="best" type="bus_bus" departSpeed="max"/>
    <trip id="bus2" depart="524.50" from="1296098177" to="587063887#0" departLane="best" type="bus_bus" departSpeed="max"/>
    <trip id="bus3" depart="786.75" from="1296098177" to="587063887#0" departLane="best" type="bus_bus" departSpeed="max"/>
    <trip id="bus4" depart="1049.00" from="-587063887#5" to="-1293084433" departLane="best" type="bus_bus" departSpeed="max"/>
    <trip id="bus5" depart="1311.25" from="1296098177" to="587063887#0" departLane="best" type="bus_bus" departSpeed="max"/>
    <trip id="bus6" depart="1573.50" from="1296098177" to="587063887#0" departLane="best" type="bus_bus" departSpeed="max"/>
    <trip id="bus7" depart="1835.75" from="-587063887#5" to="-333292211#2" departLane="best" type="bus_bus" departSpeed="max"/>
    <trip id="bus8" depart="2098.00" from="587063904" to="587063887#0" departLane="best" type="bus_bus" departSpeed="max"/>
    <trip id="bus9" depart="2360.25" from="1296098177" to="587063887#0" departLane="best" type="bus_bus" departSpeed="max"/>
    <trip id="bus10" depart="2622.50" from="-587063887#5" to="-333292211#2" departLane="best" type="bus_bus" departSpeed="max"/>
    <trip id="bus11" depart="2884.75" from="587063904" to="-1293084433" departLane="best" type="bus_bus" departSpeed="max"/>
    <trip id="bus12" depart="3147.00" from="1296098177" to="587063887#0" departLane="best" type="bus_bus" departSpeed="max"/>
    <trip id="bus13" depart="3409.25" from="587063904" to="587063887#0" departLane="best" type="bus_bus" departSpeed="max"/>
</routes>
