<?xml version="1.0" encoding="UTF-8"?>

<!-- generated on 2025-09-17 21:58:13.007475 by randomTrips.py v1_24_0+0000-b72eb3fabc8
<configuration>
    <net-file value="osm.net.xml.gz"/>
    <output-trip-file value="osm.truck.trips.xml"/>
    <route-file value="osm.truck.rou.xml"/>
    <prefix value="truck"/>
    <trip-attributes value="departLane=&quot;best&quot;"/>
    <fringe-start-attributes value="departSpeed=&quot;max&quot;"/>
    <vehicle-class value="truck"/>
    <fringe-factor value="5"/>
    <edge-permission value="truck"/>
    <via-edge-types value="highway.motorway,highway.motorway_link,highway.trunk_link,highway.primary_link,highway.secondary_link,highway.tertiary_link"/>
    <seed value="45"/>
    <min-distance value="600.0"/>
    <min-distance.fringe value="10.0"/>
    <remove-loops value="True"/>
    <insertion-density value="8.0"/>
</configuration>
-->

<!-- generated on 2025-09-17 21:58:12 by Eclipse SUMO duarouter Version 1.24.0
<duarouterConfiguration xmlns:xsi="http://www.w3.org/2001/XMLSchema-instance" xsi:noNamespaceSchemaLocation="http://sumo.dlr.de/xsd/duarouterConfiguration.xsd">

    <input>
        <net-file value="osm.net.xml.gz"/>
        <route-files value="osm.truck.trips.xml"/>
    </input>

    <output>
        <output-file value="osm.truck.rou.xml"/>
        <alternatives-output value="NUL"/>
    </output>

    <processing>
        <remove-loops value="true"/>
    </processing>

    <time>
        <begin value="0.0"/>
        <end value="3600.0"/>
    </time>

    <report>
        <no-warnings value="true"/>
        <ignore-errors value="true"/>
        <no-step-log value="true"/>
    </report>

</duarouterConfiguration>
-->

<routes xmlns:xsi="http://www.w3.org/2001/XMLSchema-instance" xsi:noNamespaceSchemaLocation="http://sumo.dlr.de/xsd/routes_file.xsd">
    <vType id="truck_truck" vClass="truck"/>
    <vehicle id="truck0" type="truck_truck" depart="0.00" departLane="best" departSpeed="max">
        <route edges="109973440 183543973#0"/>
    </vehicle>
    <vehicle id="truck1" type="truck_truck" depart="176.08" departLane="best" departSpeed="max">
        <route edges="690977719#0 183543973#0"/>
    </vehicle>
    <vehicle id="truck2" type="truck_truck" depart="352.16" departLane="best" departSpeed="max">
        <route edges="690977719#0 183543973#0"/>
    </vehicle>
    <vehicle id="truck3" type="truck_truck" depart="528.24" departLane="best" departSpeed="max">
        <route edges="109973440 -690977716#1"/>
    </vehicle>
    <vehicle id="truck4" type="truck_truck" depart="704.32" departLane="best" departSpeed="max">
        <route edges="-282194769#1 -183541938#7"/>
    </vehicle>
    <vehicle id="truck5" type="truck_truck" depart="880.41" departLane="best" departSpeed="max">
        <route edges="690977719#0 -183541938#7"/>
    </vehicle>
    <vehicle id="truck6" type="truck_truck" depart="1056.49" departLane="best" departSpeed="max">
        <route edges="-282194769#1 -690977716#1"/>
    </vehicle>
    <vehicle id="truck7" type="truck_truck" depart="1232.57" departLane="best" departSpeed="max">
        <route edges="690977719#0 183543973#0"/>
    </vehicle>
    <vehicle id="truck8" type="truck_truck" depart="1408.65" departLane="best" departSpeed="max">
        <route edges="109973440 183543973#0"/>
    </vehicle>
    <vehicle id="truck9" type="truck_truck" depart="1584.73" departLane="best" departSpeed="max">
        <route edges="690977719#0 -183541938#7"/>
    </vehicle>
    <vehicle id="truck10" type="truck_truck" depart="1760.81" departLane="best" departSpeed="max">
        <route edges="690977719#0 -183541938#7"/>
    </vehicle>
    <vehicle id="truck11" type="truck_truck" depart="1936.89" departLane="best" departSpeed="max">
        <route edges="690977719#0 183543973#0"/>
    </vehicle>
    <vehicle id="truck12" type="truck_truck" depart="2112.97" departLane="best" departSpeed="max">
        <route edges="109973440 -690977716#1"/>
    </vehicle>
    <vehicle id="truck13" type="truck_truck" depart="2289.05" departLane="best" departSpeed="max">
        <route edges="690977719#0 183543973#0"/>
    </vehicle>
    <vehicle id="truck14" type="truck_truck" depart="2465.14" departLane="best" departSpeed="max">
        <route edges="690977719#0 -183541938#7"/>
    </vehicle>
    <vehicle id="truck15" type="truck_truck" depart="2641.22" departLane="best" departSpeed="max">
        <route edges="690977719#0 183543973#0"/>
    </vehicle>
    <vehicle id="truck16" type="truck_truck" depart="2817.30" departLane="best" departSpeed="max">
        <route edges="109973440 -690977716#1"/>
    </vehicle>
    <vehicle id="truck17" type="truck_truck" depart="2993.38" departLane="best" departSpeed="max">
        <route edges="690977719#0 183543973#0"/>
    </vehicle>
    <vehicle id="truck18" type="truck_truck" depart="3169.46" departLane="best" departSpeed="max">
        <route edges="109973440 183543973#0"/>
    </vehicle>
    <vehicle id="truck19" type="truck_truck" depart="3345.54" departLane="best" departSpeed="max">
        <route edges="109973440 -690977716#1"/>
    </vehicle>
    <vehicle id="truck20" type="truck_truck" depart="3521.62" departLane="best" departSpeed="max">
        <route edges="109973440 -690977716#1"/>
    </vehicle>
</routes>
