<?xml version="1.0" encoding="UTF-8"?>

<!-- generated on 2025-08-30 20:04:59 by Eclipse SUMO netconvert Version 1.24.0
<netconvertConfiguration xmlns:xsi="http://www.w3.org/2001/XMLSchema-instance" xsi:noNamespaceSchemaLocation="http://sumo.dlr.de/xsd/netconvertConfiguration.xsd">

    <input>
        <type-files value="${SUMO_HOME}\data\typemap\osmNetconvert.typ.xml"/>
        <osm-files value="osm_bbox.osm.xml.gz"/>
    </input>

    <output>
        <output-file value="osm.net.xml.gz"/>
        <output.street-names value="true"/>
        <output.original-names value="true"/>
    </output>

    <projection>
        <proj.utm value="true"/>
    </projection>

    <processing>
        <geometry.remove value="true"/>
        <roundabouts.guess value="true"/>
    </processing>

    <tls_building>
        <tls.discard-simple value="true"/>
        <tls.join value="true"/>
        <tls.guess-signals value="true"/>
        <tls.default-type value="actuated"/>
    </tls_building>

    <ramp_guessing>
        <ramps.guess value="true"/>
    </ramp_guessing>

    <edge_removal>
        <keep-edges.by-vclass value="passenger"/>
    </edge_removal>

    <junctions>
        <junctions.join value="true"/>
        <junctions.corner-detail value="5"/>
    </junctions>

</netconvertConfiguration>
-->

<net version="1.20" junctionCornerDetail="5" limitTurnSpeed="5.50" xmlns:xsi="http://www.w3.org/2001/XMLSchema-instance" xsi:noNamespaceSchemaLocation="http://sumo.dlr.de/xsd/net_file.xsd">

    <location netOffset="-279704.63,-1598844.64" convBoundary="0.00,0.00,1275.41,974.89" origBoundary="120.956303,14.453371,120.968167,14.462171" projParameter="+proj=utm +zone=51 +ellps=WGS84 +datum=WGS84 +units=m +no_defs"/>

    <type id="highway.primary" priority="12" numLanes="2" speed="27.78" disallow="tram rail_urban rail rail_electric rail_fast ship container cable_car subway aircraft wheelchair scooter drone" oneway="0"/>
    <type id="highway.residential" priority="3" numLanes="1" speed="13.89" disallow="tram rail_urban rail rail_electric rail_fast ship container cable_car subway aircraft wheelchair scooter drone" oneway="0"/>
    <type id="highway.secondary" priority="11" numLanes="1" speed="27.78" disallow="tram rail_urban rail rail_electric rail_fast ship container cable_car subway aircraft wheelchair scooter drone" oneway="0"/>
    <type id="highway.tertiary" priority="10" numLanes="1" speed="22.22" disallow="tram rail_urban rail rail_electric rail_fast ship container cable_car subway aircraft wheelchair scooter drone" oneway="0"/>
    <type id="highway.trunk" priority="13" numLanes="2" speed="27.78" disallow="pedestrian bicycle tram rail_urban rail rail_electric rail_fast ship container cable_car subway aircraft wheelchair scooter drone" oneway="0"/>

    <edge id=":12880989879_0" function="internal">
        <lane id=":12880989879_0_0" index="0" disallow="tram rail_urban rail rail_electric rail_fast ship container cable_car subway aircraft wheelchair scooter drone" speed="3.65" length="4.67" shape="743.53,886.41 742.13,886.75 741.27,886.50 740.96,885.66 741.19,884.24"/>
    </edge>
    <edge id=":2784579739_0" function="internal">
        <lane id=":2784579739_0_0" index="0" disallow="tram rail_urban rail rail_electric rail_fast ship container cable_car subway aircraft wheelchair scooter drone" speed="3.65" length="4.67" shape="551.46,536.57 550.46,535.54 550.23,534.67 550.79,533.97 552.13,533.44"/>
    </edge>
    <edge id=":27928553_0" function="internal">
        <lane id=":27928553_0_0" index="0" disallow="bicycle tram rail_urban rail rail_electric rail_fast ship container cable_car subway aircraft wheelchair scooter drone" speed="3.65" length="4.67" shape="708.96,934.42 709.54,935.74 709.44,936.63 708.67,937.09 707.23,937.12"/>
    </edge>
    <edge id=":299178239_0" function="internal">
        <lane id=":299178239_0_0" index="0" disallow="tram rail_urban rail rail_electric rail_fast ship container cable_car subway aircraft wheelchair scooter drone" speed="3.65" length="4.67" shape="6.69,717.30 5.72,718.37 4.87,718.65 4.14,718.14 3.52,716.83"/>
    </edge>
    <edge id=":299178240_0" function="internal">
        <lane id=":299178240_0_0" index="0" disallow="tram rail_urban rail rail_electric rail_fast ship container cable_car subway aircraft wheelchair scooter drone" speed="6.63" length="9.32" shape="46.23,538.11 43.61,537.94 41.57,538.59 40.11,540.07 39.22,542.38"/>
    </edge>
    <edge id=":299178240_1" function="internal">
        <lane id=":299178240_1_0" index="0" disallow="tram rail_urban rail rail_electric rail_fast ship container cable_car subway aircraft wheelchair scooter drone" speed="7.84" length="14.56" shape="46.23,538.11 42.42,536.75 40.08,534.51 39.21,531.40 39.81,527.40"/>
    </edge>
    <edge id=":299178240_2" function="internal">
        <lane id=":299178240_2_0" index="0" disallow="tram rail_urban rail rail_electric rail_fast ship container cable_car subway aircraft wheelchair scooter drone" speed="3.65" length="4.67" shape="46.23,538.11 45.21,537.09 44.98,536.22 45.53,535.52 46.86,534.97"/>
    </edge>
    <edge id=":299178240_3" function="internal">
        <lane id=":299178240_3_0" index="0" disallow="tram rail_urban rail rail_electric rail_fast ship container cable_car subway aircraft wheelchair scooter drone" speed="6.31" length="9.04" shape="42.88,528.32 42.51,530.80 43.04,532.74 44.50,534.13 46.86,534.97"/>
    </edge>
    <edge id=":299178240_4" function="internal">
        <lane id=":299178240_4_0" index="0" disallow="tram rail_urban rail rail_electric rail_fast ship container cable_car subway aircraft wheelchair scooter drone" speed="22.22" length="14.53" shape="42.88,528.32 39.22,542.38"/>
    </edge>
    <edge id=":299178240_5" function="internal">
        <lane id=":299178240_5_0" index="0" disallow="tram rail_urban rail rail_electric rail_fast ship container cable_car subway aircraft wheelchair scooter drone" speed="3.65" length="1.44" shape="42.88,528.32 41.77,529.24"/>
    </edge>
    <edge id=":299178240_9" function="internal">
        <lane id=":299178240_9_0" index="0" disallow="tram rail_urban rail rail_electric rail_fast ship container cable_car subway aircraft wheelchair scooter drone" speed="3.65" length="3.23" shape="41.77,529.24 40.89,529.39 40.23,528.78 39.81,527.40"/>
    </edge>
    <edge id=":299178240_6" function="internal">
        <lane id=":299178240_6_0" index="0" disallow="tram rail_urban rail rail_electric rail_fast ship container cable_car subway aircraft wheelchair scooter drone" speed="22.22" length="14.78" shape="36.10,541.70 39.81,527.40"/>
    </edge>
    <edge id=":299178240_7" function="internal">
        <lane id=":299178240_7_0" index="0" disallow="tram rail_urban rail rail_electric rail_fast ship container cable_car subway aircraft wheelchair scooter drone" speed="8.11" length="4.31" shape="36.10,541.70 37.47,538.08 37.77,537.77"/>
    </edge>
    <edge id=":299178240_8" function="internal">
        <lane id=":299178240_8_0" index="0" disallow="tram rail_urban rail rail_electric rail_fast ship container cable_car subway aircraft wheelchair scooter drone" speed="3.65" length="1.44" shape="36.10,541.70 37.13,540.70"/>
    </edge>
    <edge id=":299178240_10" function="internal">
        <lane id=":299178240_10_0" index="0" disallow="tram rail_urban rail rail_electric rail_fast ship container cable_car subway aircraft wheelchair scooter drone" speed="8.11" length="10.12" shape="37.77,537.77 39.72,535.76 42.85,534.72 46.86,534.97"/>
    </edge>
    <edge id=":299178240_11" function="internal">
        <lane id=":299178240_11_0" index="0" disallow="tram rail_urban rail rail_electric rail_fast ship container cable_car subway aircraft wheelchair scooter drone" speed="3.65" length="3.23" shape="37.13,540.70 38.00,540.48 38.70,541.04 39.22,542.38"/>
    </edge>
    <edge id=":299178262_0" function="internal">
        <lane id=":299178262_0_0" index="0" disallow="tram rail_urban rail rail_electric rail_fast ship container cable_car subway aircraft wheelchair scooter drone" speed="13.89" length="14.86" shape="198.44,724.94 195.04,726.48 191.65,727.97 188.21,729.34 184.67,730.50"/>
    </edge>
    <edge id=":299178262_1" function="internal">
        <lane id=":299178262_1_0" index="0" disallow="tram rail_urban rail rail_electric rail_fast ship container cable_car subway aircraft wheelchair scooter drone" speed="8.57" length="3.80" shape="198.44,724.94 194.87,725.91 194.77,725.90"/>
    </edge>
    <edge id=":299178262_2" function="internal">
        <lane id=":299178262_2_0" index="0" disallow="tram rail_urban rail rail_electric rail_fast ship container cable_car subway aircraft wheelchair scooter drone" speed="3.65" length="1.44" shape="198.44,724.94 197.02,724.70"/>
    </edge>
    <edge id=":299178262_9" function="internal">
        <lane id=":299178262_9_0" index="0" disallow="tram rail_urban rail rail_electric rail_fast ship container cable_car subway aircraft wheelchair scooter drone" speed="8.57" length="10.87" shape="194.77,725.90 191.61,725.48 188.65,723.63 185.99,720.38"/>
    </edge>
    <edge id=":299178262_10" function="internal">
        <lane id=":299178262_10_0" index="0" disallow="tram rail_urban rail rail_electric rail_fast ship container cable_car subway aircraft wheelchair scooter drone" speed="3.65" length="3.23" shape="197.02,724.70 196.33,724.14 196.36,723.24 197.13,722.02"/>
    </edge>
    <edge id=":299178262_3" function="internal">
        <lane id=":299178262_3_0" index="0" disallow="tram rail_urban rail rail_electric rail_fast ship container cable_car subway aircraft wheelchair scooter drone" speed="7.19" length="10.03" shape="188.70,718.67 190.54,720.97 192.56,722.29 194.76,722.64 197.13,722.02"/>
    </edge>
    <edge id=":299178262_4" function="internal">
        <lane id=":299178262_4_0" index="0" disallow="tram rail_urban rail rail_electric rail_fast ship container cable_car subway aircraft wheelchair scooter drone" speed="7.59" length="15.42" shape="188.70,718.67 190.59,722.80 190.55,726.15 188.58,728.72 184.67,730.50"/>
    </edge>
    <edge id=":299178262_5" function="internal">
        <lane id=":299178262_5_0" index="0" disallow="tram rail_urban rail rail_electric rail_fast ship container cable_car subway aircraft wheelchair scooter drone" speed="3.65" length="4.67" shape="188.70,718.67 188.66,720.12 188.20,720.88 187.31,720.97 185.99,720.38"/>
    </edge>
    <edge id=":299178262_6" function="internal">
        <lane id=":299178262_6_0" index="0" disallow="tram rail_urban rail rail_electric rail_fast ship container cable_car subway aircraft wheelchair scooter drone" speed="6.03" length="9.26" shape="183.57,727.49 185.92,726.42 187.10,724.87 187.13,722.86 185.99,720.38"/>
    </edge>
    <edge id=":299178262_7" function="internal">
        <lane id=":299178262_7_0" index="0" disallow="tram rail_urban rail rail_electric rail_fast ship container cable_car subway aircraft wheelchair scooter drone" speed="13.89" length="14.63" shape="183.57,727.49 187.07,726.34 190.44,725.01 193.76,723.55 197.13,722.02"/>
    </edge>
    <edge id=":299178262_8" function="internal">
        <lane id=":299178262_8_0" index="0" disallow="tram rail_urban rail rail_electric rail_fast ship container cable_car subway aircraft wheelchair scooter drone" speed="3.65" length="1.45" shape="183.57,727.49 184.97,727.83"/>
    </edge>
    <edge id=":299178262_11" function="internal">
        <lane id=":299178262_11_0" index="0" disallow="tram rail_urban rail rail_electric rail_fast ship container cable_car subway aircraft wheelchair scooter drone" speed="3.65" length="3.24" shape="184.97,727.83 185.63,728.45 185.53,729.34 184.67,730.50"/>
    </edge>
    <edge id=":299178347_0" function="internal">
        <lane id=":299178347_0_0" index="0" disallow="tram rail_urban rail rail_electric rail_fast ship container cable_car subway aircraft wheelchair scooter drone" speed="13.89" length="14.52" shape="107.49,730.11 93.03,728.85"/>
    </edge>
    <edge id=":299178347_1" function="internal">
        <lane id=":299178347_1_0" index="0" disallow="tram rail_urban rail rail_electric rail_fast ship container cable_car subway aircraft wheelchair scooter drone" speed="7.79" length="4.24" shape="107.49,730.11 103.50,729.21 103.39,729.12"/>
    </edge>
    <edge id=":299178347_2" function="internal">
        <lane id=":299178347_2_0" index="0" disallow="tram rail_urban rail rail_electric rail_fast ship container cable_car subway aircraft wheelchair scooter drone" speed="3.65" length="1.44" shape="107.49,730.11 106.36,729.22"/>
    </edge>
    <edge id=":299178347_9" function="internal">
        <lane id=":299178347_9_0" index="0" disallow="tram rail_urban rail rail_electric rail_fast ship container cable_car subway aircraft wheelchair scooter drone" speed="7.79" length="10.45" shape="103.39,729.12 100.92,727.24 99.75,724.21 100.01,720.11"/>
    </edge>
    <edge id=":299178347_10" function="internal">
        <lane id=":299178347_10_0" index="0" disallow="tram rail_urban rail rail_electric rail_fast ship container cable_car subway aircraft wheelchair scooter drone" speed="3.65" length="3.23" shape="106.36,729.22 106.03,728.39 106.49,727.63 107.75,726.93"/>
    </edge>
    <edge id=":299178347_3" function="internal">
        <lane id=":299178347_3_0" index="0" disallow="tram rail_urban rail rail_electric rail_fast ship container cable_car subway aircraft wheelchair scooter drone" speed="6.25" length="9.05" shape="103.14,720.77 102.98,723.29 103.70,725.15 105.29,726.37 107.75,726.93"/>
    </edge>
    <edge id=":299178347_4" function="internal">
        <lane id=":299178347_4_0" index="0" disallow="tram rail_urban rail rail_electric rail_fast ship container cable_car subway aircraft wheelchair scooter drone" speed="8.40" length="14.42" shape="103.14,720.77 101.82,724.60 99.69,727.22 96.76,728.64 93.03,728.85"/>
    </edge>
    <edge id=":299178347_5" function="internal">
        <lane id=":299178347_5_0" index="0" disallow="tram rail_urban rail rail_electric rail_fast ship container cable_car subway aircraft wheelchair scooter drone" speed="3.65" length="4.67" shape="103.14,720.77 102.11,721.78 101.25,722.01 100.55,721.45 100.01,720.11"/>
    </edge>
    <edge id=":299178347_6" function="internal">
        <lane id=":299178347_6_0" index="0" disallow="tram rail_urban rail rail_electric rail_fast ship container cable_car subway aircraft wheelchair scooter drone" speed="6.98" length="9.66" shape="93.34,725.66 95.78,725.51 97.71,724.53 99.12,722.73 100.01,720.11"/>
    </edge>
    <edge id=":299178347_7" function="internal">
        <lane id=":299178347_7_0" index="0" disallow="tram rail_urban rail rail_electric rail_fast ship container cable_car subway aircraft wheelchair scooter drone" speed="13.89" length="14.47" shape="93.34,725.66 107.75,726.93"/>
    </edge>
    <edge id=":299178347_8" function="internal">
        <lane id=":299178347_8_0" index="0" disallow="tram rail_urban rail rail_electric rail_fast ship container cable_car subway aircraft wheelchair scooter drone" speed="3.65" length="1.44" shape="93.34,725.66 94.45,726.57"/>
    </edge>
    <edge id=":299178347_11" function="internal">
        <lane id=":299178347_11_0" index="0" disallow="tram rail_urban rail rail_electric rail_fast ship container cable_car subway aircraft wheelchair scooter drone" speed="3.65" length="3.23" shape="94.45,726.57 94.78,727.41 94.30,728.16 93.03,728.85"/>
    </edge>
    <edge id=":299178348_0" function="internal">
        <lane id=":299178348_0_0" index="0" disallow="tram rail_urban rail rail_electric rail_fast ship container cable_car subway aircraft wheelchair scooter drone" speed="5.92" length="9.10" shape="139.87,573.56 137.44,572.57 135.52,572.73 134.12,574.04 133.22,576.51"/>
    </edge>
    <edge id=":299178348_1" function="internal">
        <lane id=":299178348_1_0" index="0" disallow="tram rail_urban rail rail_electric rail_fast ship container cable_car subway aircraft wheelchair scooter drone" speed="13.89" length="14.67" shape="139.87,573.56 127.48,565.70"/>
    </edge>
    <edge id=":299178348_2" function="internal">
        <lane id=":299178348_2_0" index="0" disallow="tram rail_urban rail rail_electric rail_fast ship container cable_car subway aircraft wheelchair scooter drone" speed="3.65" length="1.44" shape="139.87,573.56 139.24,572.27"/>
    </edge>
    <edge id=":299178348_9" function="internal">
        <lane id=":299178348_9_0" index="0" disallow="tram rail_urban rail rail_electric rail_fast ship container cable_car subway aircraft wheelchair scooter drone" speed="3.65" length="3.23" shape="139.24,572.27 139.29,571.38 140.04,570.89 141.48,570.80"/>
    </edge>
    <edge id=":299178348_3" function="internal">
        <lane id=":299178348_3_0" index="0" disallow="tram rail_urban rail rail_electric rail_fast ship container cable_car subway aircraft wheelchair scooter drone" speed="13.89" length="14.40" shape="129.33,563.09 141.48,570.80"/>
    </edge>
    <edge id=":299178348_4" function="internal">
        <lane id=":299178348_4_0" index="0" disallow="tram rail_urban rail rail_electric rail_fast ship container cable_car subway aircraft wheelchair scooter drone" speed="9.76" length="3.41" shape="129.33,563.09 131.76,565.47"/>
    </edge>
    <edge id=":299178348_5" function="internal">
        <lane id=":299178348_5_0" index="0" disallow="tram rail_urban rail rail_electric rail_fast ship container cable_car subway aircraft wheelchair scooter drone" speed="3.65" length="1.44" shape="129.33,563.09 129.85,564.43"/>
    </edge>
    <edge id=":299178348_10" function="internal">
        <lane id=":299178348_10_0" index="0" disallow="tram rail_urban rail rail_electric rail_fast ship container cable_car subway aircraft wheelchair scooter drone" speed="9.76" length="11.43" shape="131.76,565.47 133.22,568.51 133.71,572.19 133.22,576.51"/>
    </edge>
    <edge id=":299178348_11" function="internal">
        <lane id=":299178348_11_0" index="0" disallow="tram rail_urban rail rail_electric rail_fast ship container cable_car subway aircraft wheelchair scooter drone" speed="3.65" length="3.23" shape="129.85,564.43 129.71,565.32 128.92,565.74 127.48,565.70"/>
    </edge>
    <edge id=":299178348_6" function="internal">
        <lane id=":299178348_6_0" index="0" disallow="tram rail_urban rail rail_electric rail_fast ship container cable_car subway aircraft wheelchair scooter drone" speed="8.51" length="11.12" shape="130.09,575.86 130.49,572.51 130.19,569.70 129.19,567.43 127.48,565.70"/>
    </edge>
    <edge id=":299178348_7" function="internal">
        <lane id=":299178348_7_0" index="0" disallow="tram rail_urban rail rail_electric rail_fast ship container cable_car subway aircraft wheelchair scooter drone" speed="7.55" length="15.60" shape="130.09,575.86 131.62,571.62 134.03,569.37 137.32,569.10 141.48,570.80"/>
    </edge>
    <edge id=":299178348_8" function="internal">
        <lane id=":299178348_8_0" index="0" disallow="tram rail_urban rail rail_electric rail_fast ship container cable_car subway aircraft wheelchair scooter drone" speed="3.65" length="4.67" shape="130.09,575.86 131.12,574.85 131.98,574.62 132.69,575.18 133.22,576.51"/>
    </edge>
    <edge id=":299178349_0" function="internal">
        <lane id=":299178349_0_0" index="0" disallow="tram rail_urban rail rail_electric rail_fast ship container cable_car subway aircraft wheelchair scooter drone" speed="6.07" length="8.28" shape="56.26,725.33 54.03,724.79 52.57,723.66 51.90,721.95 52.01,719.65"/>
    </edge>
    <edge id=":299178349_1" function="internal">
        <lane id=":299178349_1_0" index="0" disallow="tram rail_urban rail rail_electric rail_fast ship container cable_car subway aircraft wheelchair scooter drone" speed="3.90" length="2.76" shape="55.15,720.25 55.11,721.02 55.34,721.59 55.82,721.96 56.57,722.14"/>
    </edge>
    <edge id=":299178350_0" function="internal">
        <lane id=":299178350_0_0" index="0" disallow="tram rail_urban rail rail_electric rail_fast ship container cable_car subway aircraft wheelchair scooter drone" speed="6.47" length="9.03" shape="93.92,547.80 91.45,547.64 89.53,548.31 88.16,549.82 87.36,552.17"/>
    </edge>
    <edge id=":299178350_1" function="internal">
        <lane id=":299178350_1_0" index="0" disallow="tram rail_urban rail rail_electric rail_fast ship container cable_car subway aircraft wheelchair scooter drone" speed="13.89" length="14.41" shape="93.92,547.80 79.81,544.89"/>
    </edge>
    <edge id=":299178350_2" function="internal">
        <lane id=":299178350_2_0" index="0" disallow="tram rail_urban rail rail_electric rail_fast ship container cable_car subway aircraft wheelchair scooter drone" speed="3.65" length="1.44" shape="93.92,547.80 92.91,546.77"/>
    </edge>
    <edge id=":299178350_9" function="internal">
        <lane id=":299178350_9_0" index="0" disallow="tram rail_urban rail rail_electric rail_fast ship container cable_car subway aircraft wheelchair scooter drone" speed="3.65" length="3.23" shape="92.91,546.77 92.69,545.90 93.24,545.20 94.58,544.67"/>
    </edge>
    <edge id=":299178350_3" function="internal">
        <lane id=":299178350_3_0" index="0" disallow="tram rail_urban rail rail_electric rail_fast ship container cable_car subway aircraft wheelchair scooter drone" speed="13.89" length="14.44" shape="80.44,541.75 94.58,544.67"/>
    </edge>
    <edge id=":299178350_4" function="internal">
        <lane id=":299178350_4_0" index="0" disallow="tram rail_urban rail rail_electric rail_fast ship container cable_car subway aircraft wheelchair scooter drone" speed="8.04" length="4.07" shape="80.44,541.75 84.09,543.06 84.24,543.19"/>
    </edge>
    <edge id=":299178350_5" function="internal">
        <lane id=":299178350_5_0" index="0" disallow="tram rail_urban rail rail_electric rail_fast ship container cable_car subway aircraft wheelchair scooter drone" speed="3.65" length="1.44" shape="80.44,541.75 81.46,542.78"/>
    </edge>
    <edge id=":299178350_10" function="internal">
        <lane id=":299178350_10_0" index="0" disallow="tram rail_urban rail rail_electric rail_fast ship container cable_car subway aircraft wheelchair scooter drone" speed="8.04" length="10.15" shape="84.24,543.19 86.46,545.22 87.55,548.26 87.36,552.17"/>
    </edge>
    <edge id=":299178350_11" function="internal">
        <lane id=":299178350_11_0" index="0" disallow="tram rail_urban rail rail_electric rail_fast ship container cable_car subway aircraft wheelchair scooter drone" speed="3.65" length="3.23" shape="81.46,542.78 81.69,543.64 81.14,544.34 79.81,544.89"/>
    </edge>
    <edge id=":299178350_6" function="internal">
        <lane id=":299178350_6_0" index="0" disallow="tram rail_urban rail rail_electric rail_fast ship container cable_car subway aircraft wheelchair scooter drone" speed="6.55" length="9.10" shape="84.21,551.57 84.34,549.06 83.64,547.11 82.13,545.72 79.81,544.89"/>
    </edge>
    <edge id=":299178350_7" function="internal">
        <lane id=":299178350_7_0" index="0" disallow="tram rail_urban rail rail_electric rail_fast ship container cable_car subway aircraft wheelchair scooter drone" speed="7.97" length="14.26" shape="84.21,551.57 85.49,547.86 87.64,545.48 90.67,544.41 94.58,544.67"/>
    </edge>
    <edge id=":299178350_8" function="internal">
        <lane id=":299178350_8_0" index="0" disallow="tram rail_urban rail rail_electric rail_fast ship container cable_car subway aircraft wheelchair scooter drone" speed="3.65" length="4.67" shape="84.21,551.57 85.22,550.54 86.08,550.30 86.80,550.84 87.36,552.17"/>
    </edge>
    <edge id=":299178550_0" function="internal">
        <lane id=":299178550_0_0" index="0" disallow="tram rail_urban rail rail_electric rail_fast ship container cable_car subway aircraft wheelchair scooter drone" speed="3.65" length="4.67" shape="113.49,308.51 114.64,307.63 115.53,307.51 116.15,308.14 116.52,309.54"/>
    </edge>
    <edge id=":299178733_0" function="internal">
        <lane id=":299178733_0_0" index="0" disallow="bicycle tram rail_urban rail rail_electric rail_fast ship container cable_car subway aircraft wheelchair scooter drone" speed="6.33" length="8.98" shape="354.16,802.89 356.63,802.91 358.46,802.12 359.65,800.50 360.20,798.06"/>
    </edge>
    <edge id=":299178733_1" function="internal">
        <lane id=":299178733_1_0" index="0" disallow="tram rail_urban rail rail_electric rail_fast ship container cable_car subway aircraft wheelchair scooter drone" speed="3.65" length="4.68" shape="354.16,802.89 355.26,803.81 355.57,804.65 355.09,805.41 353.81,806.07"/>
    </edge>
    <edge id=":299178733_2" function="internal">
        <lane id=":299178733_2_0" index="0" disallow="bicycle tram rail_urban rail rail_electric rail_fast ship container cable_car subway aircraft wheelchair scooter drone" speed="6.76" length="9.25" shape="359.07,812.42 358.90,809.97 357.96,808.10 356.26,806.80 353.81,806.07"/>
    </edge>
    <edge id=":299178733_3" function="internal">
        <lane id=":299178733_3_0" index="0" disallow="bicycle tram rail_urban rail rail_electric rail_fast ship container cable_car subway aircraft wheelchair scooter drone" speed="16.67" length="14.39" shape="359.07,812.42 360.20,798.06"/>
        <lane id=":299178733_3_1" index="1" disallow="bicycle tram rail_urban rail rail_electric rail_fast ship container cable_car subway aircraft wheelchair scooter drone" speed="16.67" length="14.39" shape="362.26,812.66 363.39,798.31"/>
        <lane id=":299178733_3_2" index="2" disallow="bicycle tram rail_urban rail rail_electric rail_fast ship container cable_car subway aircraft wheelchair scooter drone" speed="16.67" length="14.39" shape="365.45,812.90 366.58,798.57"/>
    </edge>
    <edge id=":299178736_0" function="internal">
        <lane id=":299178736_0_0" index="0" disallow="tram rail_urban rail rail_electric rail_fast ship container cable_car subway aircraft wheelchair scooter drone" speed="3.65" length="4.67" shape="-0.21,754.29 -1.30,753.34 -1.59,752.49 -1.08,751.75 0.21,751.12"/>
    </edge>
    <edge id=":325657044_0" function="internal">
        <lane id=":325657044_0_0" index="0" disallow="tram rail_urban rail rail_electric rail_fast ship container cable_car subway aircraft wheelchair scooter drone" speed="3.65" length="4.67" shape="626.83,635.55 625.88,634.46 625.71,633.58 626.30,632.92 627.67,632.46"/>
    </edge>
    <edge id=":325657045_0" function="internal">
        <lane id=":325657045_0_0" index="0" disallow="tram rail_urban rail rail_electric rail_fast ship container cable_car subway aircraft wheelchair scooter drone" speed="13.89" length="13.94" shape="679.44,650.43 666.12,646.32"/>
    </edge>
    <edge id=":325657045_1" function="internal">
        <lane id=":325657045_1_0" index="0" disallow="tram rail_urban rail rail_electric rail_fast ship container cable_car subway aircraft wheelchair scooter drone" speed="8.01" length="3.83" shape="679.44,650.43 676.04,648.69"/>
    </edge>
    <edge id=":325657045_2" function="internal">
        <lane id=":325657045_2_0" index="0" disallow="tram rail_urban rail rail_electric rail_fast ship container cable_car subway aircraft wheelchair scooter drone" speed="3.65" length="1.44" shape="679.44,650.43 678.57,649.29"/>
    </edge>
    <edge id=":325657045_9" function="internal">
        <lane id=":325657045_9_0" index="0" disallow="tram rail_urban rail rail_electric rail_fast ship container cable_car subway aircraft wheelchair scooter drone" speed="8.01" length="10.17" shape="676.04,648.69 673.98,646.27 673.28,643.18 673.93,639.41"/>
    </edge>
    <edge id=":325657045_10" function="internal">
        <lane id=":325657045_10_0" index="0" disallow="tram rail_urban rail rail_electric rail_fast ship container cable_car subway aircraft wheelchair scooter drone" speed="3.65" length="3.23" shape="678.57,649.29 678.45,648.40 679.09,647.77 680.48,647.41"/>
    </edge>
    <edge id=":325657045_3" function="internal">
        <lane id=":325657045_3_0" index="0" disallow="tram rail_urban rail rail_electric rail_fast ship container cable_car subway aircraft wheelchair scooter drone" speed="6.51" length="8.91" shape="676.98,640.39 676.56,642.79 677.01,644.76 678.32,646.30 680.48,647.41"/>
    </edge>
    <edge id=":325657045_4" function="internal">
        <lane id=":325657045_4_0" index="0" disallow="tram rail_urban rail rail_electric rail_fast ship container cable_car subway aircraft wheelchair scooter drone" speed="8.07" length="13.97" shape="676.98,640.39 675.31,643.83 672.94,645.96 669.88,646.79 666.12,646.32"/>
    </edge>
    <edge id=":325657045_5" function="internal">
        <lane id=":325657045_5_0" index="0" disallow="tram rail_urban rail rail_electric rail_fast ship container cable_car subway aircraft wheelchair scooter drone" speed="3.65" length="4.67" shape="676.98,640.39 675.85,641.29 674.96,641.42 674.32,640.80 673.93,639.41"/>
    </edge>
    <edge id=":325657045_6" function="internal">
        <lane id=":325657045_6_0" index="0" disallow="tram rail_urban rail rail_electric rail_fast ship container cable_car subway aircraft wheelchair scooter drone" speed="6.59" length="8.97" shape="666.97,643.23 669.38,643.54 671.34,643.00 672.86,641.62 673.93,639.41"/>
    </edge>
    <edge id=":325657045_7" function="internal">
        <lane id=":325657045_7_0" index="0" disallow="tram rail_urban rail rail_electric rail_fast ship container cable_car subway aircraft wheelchair scooter drone" speed="13.89" length="14.15" shape="666.97,643.23 680.48,647.41"/>
    </edge>
    <edge id=":325657045_8" function="internal">
        <lane id=":325657045_8_0" index="0" disallow="tram rail_urban rail rail_electric rail_fast ship container cable_car subway aircraft wheelchair scooter drone" speed="3.65" length="1.44" shape="666.97,643.23 667.91,644.32"/>
    </edge>
    <edge id=":325657045_11" function="internal">