<?xml version="1.0" encoding="UTF-8"?>

<!-- generated on 2025-10-02 19:06:57.221564 by randomTrips.py v1_24_0+0000-b72eb3fabc8
<configuration>
    <net-file value="osm.net.xml.gz"/>
    <output-trip-file value="osm.passenger.trips.xml"/>
    <route-file value="osm.passenger.rou.xml"/>
    <prefix value="veh"/>
    <trip-attributes value="departLane=&quot;best&quot;"/>
    <fringe-start-attributes value="departSpeed=&quot;max&quot;"/>
    <vehicle-class value="passenger"/>
    <lanes value="True"/>
    <fringe-factor value="5"/>
    <allow-fringe.min-length value="1000.0"/>
    <edge-permission value="passenger"/>
    <via-edge-types value="highway.motorway,highway.motorway_link,highway.trunk_link,highway.primary_link,highway.secondary_link,highway.tertiary_link"/>
    <seed value="44"/>
    <min-distance value="300.0"/>
    <min-distance.fringe value="10.0"/>
    <remove-loops value="True"/>
    <insertion-density value="12.0"/>
</configuration>
-->

<routes xmlns:xsi="http://www.w3.org/2001/XMLSchema-instance" xsi:noNamespaceSchemaLocation="http://sumo.dlr.de/xsd/routes_file.xsd">
    <vType id="veh_passenger" vClass="passenger"/>
    <trip id="veh0" depart="0.00" from="1019458712" to="109971518#0" departLane="best" type="veh_passenger" departSpeed="max"/>
    <trip id="veh1" depart="56.68" from="-183532951#1" to="-1019458712" departLane="best" type="veh_passenger" departSpeed="max"/>
    <trip id="veh2" depart="113.35" from="820090516#0" to="109971518#0" departLane="best" type="veh_passenger"/>
    <trip id="veh3" depart="170.03" from="1019458712" to="109971505" departLane="best" type="veh_passenger" departSpeed="max"/>
    <trip id="veh4" depart="226.70" from="130046557#0" to="-46753244" departLane="best" type="veh_passenger" departSpeed="max"/>
    <trip id="veh5" depart="283.38" from="130046557#0" to="-182804115#1" departLane="best" type="veh_passenger" departSpeed="max"/>
    <trip id="veh6" depart="340.06" from="-158466193#1" to="-182804112" departLane="best" type="veh_passenger" departSpeed="max"/>
    <trip id="veh7" depart="396.73" from="130046557#0" to="820090516#0" departLane="best" type="veh_passenger" departSpeed="max"/>
    <trip id="veh8" depart="453.41" from="-158466193#1" to="109971505" departLane="best" type="veh_passenger" departSpeed="max"/>
    <trip id="veh9" depart="510.08" from="-183532951#1" to="-282194769#4" departLane="best" type="veh_passenger" departSpeed="max"/>
    <trip id="veh10" depart="566.76" from="-183532951#1" to="-1019458712" departLane="best" type="veh_passenger" departSpeed="max"/>
    <trip id="veh11" depart="623.43" from="130046557#0" to="158466193#1" departLane="best" type="veh_passenger" departSpeed="max"/>
    <trip id="veh12" depart="680.11" from="182804115#2" to="109971518#0" departLane="best" type="veh_passenger"/>
    <trip id="veh13" depart="736.79" from="130046557#0" to="-5031527" departLane="best" type="veh_passenger" departSpeed="max"/>
    <trip id="veh14" depart="793.46" from="282194769#0" to="109971518#0" departLane="best" type="veh_passenger" departSpeed="max"/>
    <trip id="veh15" depart="850.14" from="282194769#0" to="109971518#0" departLane="best" type="veh_passenger" departSpeed="max"/>
    <trip id="veh16" depart="906.81" from="-820090516#2" to="158466193#1" departLane="best" type="veh_passenger"/>
    <trip id="veh17" depart="963.49" from="282194769#0" to="-1019458712" departLane="best" type="veh_passenger" departSpeed="max"/>
    <trip id="veh18" depart="1020.17" from="-183532951#1" to="-282194769#4" departLane="best" type="veh_passenger" departSpeed="max"/>
    <trip id="veh19" depart="1076.84" from="130046557#0" to="-1019458712" departLane="best" type="veh_passenger" departSpeed="max"/>
    <trip id="veh20" depart="1133.52" from="130046557#0" to="-182804118#2" departLane="best" type="veh_passenger" departSpeed="max"/>
    <trip id="veh21" depart="1190.19" from="-183532951#1" to="109971518#0" departLane="best" type="veh_passenger" departSpeed="max"/>
    <trip id="veh22" depart="1246.87" from="282194769#0" to="109971518#0" departLane="best" type="veh_passenger" departSpeed="max"/>
    <trip id="veh23" depart="1303.54" from="-183543979#1" to="109971518#0" departLane="best" type="veh_passenger"/>
    <trip id="veh24" depart="1360.22" from="-183532951#1" to="-1019458712" departLane="best" type="veh_passenger" departSpeed="max"/>
    <trip id="veh25" depart="1416.90" from="-183532951#1" to="109971518#0" departLane="best" type="veh_passenger" departSpeed="max"/>
    <trip id="veh26" depart="1473.57" from="130046557#0" to="-282194769#4" departLane="best" type="veh_passenger" departSpeed="max"/>
    <trip id="veh27" depart="1530.25" from="282194769#0" to="158466193#1" departLane="best" type="veh_passenger" departSpeed="max"/>
    <trip id="veh28" depart="1586.92" from="-183532951#1" to="-1019458712" departLane="best" type="veh_passenger" departSpeed="max"/>
    <trip id="veh29" depart="1643.60" from="130046557#0" to="182804115#2" departLane="best" type="veh_passenger" departSpeed="max"/>
    <trip id="veh30" depart="1700.28" from="130046557#0" to="-282194769#4" departLane="best" type="veh_passenger" departSpeed="max"/>
    <trip id="veh31" depart="1756.95" from="130046557#0" to="5031493" departLane="best" type="veh_passenger" departSpeed="max"/>
    <trip id="veh32" depart="1813.63" from="-158466193#1" to="-282194769#4" departLane="best" type="veh_passenger" departSpeed="max"/>
    <trip id="veh33" depart="1870.30" from="5031493" to="109971518#0" departLane="best" type="veh_passenger"/>
    <trip id="veh34" depart="1926.98" from="-158466193#1" to="109971505" departLane="best" type="veh_passenger" departSpeed="max"/>
    <trip id="veh35" depart="1983.65" from="130046557#0" to="183543979#0" departLane="best" type="veh_passenger" departSpeed="max"/>
    <trip id="veh36" depart="2040.33" from="-158466193#1" to="183543979#0" departLane="best" type="veh_passenger" departSpeed="max"/>
    <trip id="veh37" depart="2097.01" from="130046557#0" to="158466193#1" departLane="best" type="veh_passenger" departSpeed="max"/>
    <trip id="veh38" depart="2153.68" from="-183532951#1" to="109971518#0" departLane="best" type="veh_passenger" departSpeed="max"/>
    <trip id="veh39" depart="2210.36" from="130046557#0" to="-1019458712" departLane="best" type="veh_passenger" departSpeed="max"/>
    <trip id="veh40" depart="2267.03" from="-183532951#1" to="-282194769#4" departLane="best" type="veh_passenger" departSpeed="max"/>
    <trip id="veh41" depart="2323.71" from="130046557#0" to="183543979#0" departLane="best" type="veh_passenger" departSpeed="max"/>
    <trip id="veh42" depart="2380.39" from="-158466193#1" to="183543979#0" departLane="best" type="veh_passenger" departSpeed="max"/>
    <trip id="veh43" depart="2437.06" from="46753244" to="109971518#0" departLane="best" type="veh_passenger"/>
    <trip id="veh44" depart="2493.74" from="282194769#0" to="109971505" departLane="best" type="veh_passenger" departSpeed="max"/>
    <trip id="veh45" depart="2550.41" from="820090516#0" to="109971518#0" departLane="best" type="veh_passenger"/>
    <trip id="veh46" depart="2607.09" from="130046557#0" to="109971505" departLane="best" type="veh_passenger" departSpeed="max"/>
    <trip id="veh47" depart="2663.76" from="-183532951#1" to="109971518#0" departLane="best" type="veh_passenger" departSpeed="max"/>
    <trip id="veh48" depart="2720.44" from="183543979#0" to="-1019458712" departLane="best" type="veh_passenger"/>
    <trip id="veh49" depart="2777.12" from="-183543979#1" to="109971518#0" departLane="best" type="veh_passenger"/>
    <trip id="veh50" depart="2833.79" from="-183532951#1" to="-1019458712" departLane="best" type="veh_passenger" departSpeed="max"/>
    <trip id="veh51" depart="2890.47" from="282194769#0" to="109971518#0" departLane="best" type="veh_passenger" departSpeed="max"/>
    <trip id="veh52" depart="2947.14" from="-46753244" to="109971518#0" departLane="best" type="veh_passenger"/>
    <trip id="veh53" depart="3003.82" from="-46753244" to="109971518#0" departLane="best" type="veh_passenger"/>
    <trip id="veh54" depart="3060.50" from="282194769#0" to="-1019458712" departLane="best" type="veh_passenger" departSpeed="max"/>
    <trip id="veh55" depart="3117.17" from="282194769#0" to="-182804115#1" departLane="best" type="veh_passenger" departSpeed="max"/>
    <trip id="veh56" depart="3173.85" from="-158466193#1" to="-109972547#1" departLane="best" type="veh_passenger" departSpeed="max"/>
    <trip id="veh57" depart="3230.52" from="130046557#0" to="182804115#2" departLane="best" type="veh_passenger" departSpeed="max"/>
    <trip id="veh58" depart="3287.20" from="282194769#0" to="158466193#1" departLane="best" type="veh_passenger" departSpeed="max"/>
    <trip id="veh59" depart="3343.88" from="-183532951#1" to="-282194769#4" departLane="best" type="veh_passenger" departSpeed="max"/>
    <trip id="veh60" depart="3400.55" from="-183532951#1" to="-282194769#4" departLane="best" type="veh_passenger" departSpeed="max"/>
    <trip id="veh61" depart="3457.23" from="130046557#0" to="-282194769#4" departLane="best" type="veh_passenger" departSpeed="max"/>
    <trip id="veh62" depart="3513.90" from="282194769#0" to="109971505" departLane="best" type="veh_passenger" departSpeed="max"/>
    <trip id="veh63" depart="3570.58" from="282194769#0" to="109971518#0" departLane="best" type="veh_passenger" departSpeed="max"/>
</routes>
