<?xml version='1.0' encoding='utf-8'?>
<routes xmlns:xsi="http://www.w3.org/2001/XMLSchema-instance" xsi:noNamespaceSchemaLocation="http://sumo.dlr.de/xsd/routes_file.xsd"><vType id="veh_passenger" vClass="passenger" guiShape="passenger" color="128,128,128" maxSpeed="55.56" accel="2.6" decel="4.5" />
    <trip id="passenger_779713_0" depart="2207.63" from="130046557#0" to="183543979#0" departLane="best" type="veh_passenger" departSpeed="max" /><trip id="passenger_779713_1" depart="2264.24" from="-158466193#1" to="183543979#0" departLane="best" type="veh_passenger" departSpeed="max" /><trip id="passenger_779713_2" depart="1018.91" from="130046557#0" to="-182804115#1" departLane="best" type="veh_passenger" departSpeed="max" /><trip id="passenger_779713_3" depart="1528.36" from="130046557#0" to="182804115#2" departLane="best" type="veh_passenger" departSpeed="max" /><trip id="passenger_779713_4" depart="1188.73" from="-183543979#1" to="109971518#0" departLane="best" type="veh_passenger" /><trip id="passenger_779713_5" depart="0.00" from="1019458712" to="109971518#0" departLane="best" type="veh_passenger" departSpeed="max" /><trip id="passenger_779713_6" depart="2603.88" from="-183543979#1" to="109971518#0" departLane="best" type="veh_passenger" /><trip id="passenger_779713_7" depart="2886.91" from="282194769#0" to="-1019458712" departLane="best" type="veh_passenger" departSpeed="max" /><trip id="passenger_779713_8" depart="1075.51" from="-183532951#1" to="109971518#0" departLane="best" type="veh_passenger" departSpeed="max" /><trip id="passenger_779713_9" depart="1415.15" from="282194769#0" to="158466193#1" departLane="best" type="veh_passenger" departSpeed="max" /><trip id="passenger_779713_10" depart="2773.69" from="-46753244" to="109971518#0" departLane="best" type="veh_passenger" /><trip id="passenger_779713_11" depart="2547.27" from="182804118#0" to="-1019458712" departLane="best" type="veh_passenger" /><trip id="passenger_779713_12" depart="1471.76" from="-183532951#1" to="-1019458712" departLane="best" type="veh_passenger" departSpeed="max" /><trip id="passenger_779713_13" depart="2717.09" from="282194769#0" to="109971518#0" departLane="best" type="veh_passenger" departSpeed="max" /><trip id="passenger_779713_14" depart="1754.79" from="5031493" to="109971518#0" departLane="best" type="veh_passenger" /><trip id="passenger_779713_15" depart="2490.66" from="-183532951#1" to="109971518#0" departLane="best" type="veh_passenger" departSpeed="max" /><trip id="passenger_779713_16" depart="509.45" from="-183532951#1" to="-1019458712" departLane="best" type="veh_passenger" departSpeed="max" /><trip id="passenger_779713_17" depart="1811.39" from="-158466193#1" to="109971505" departLane="best" type="veh_passenger" departSpeed="max" /><trip id="passenger_779713_18" depart="56.61" from="-183532951#1" to="-1019458712" departLane="best" type="veh_passenger" departSpeed="max" /><trip id="passenger_779713_19" depart="962.30" from="130046557#0" to="-1019458712" departLane="best" type="veh_passenger" departSpeed="max" /><trip id="passenger_779713_20" depart="2151.03" from="-183532951#1" to="-282194769#4" departLane="best" type="veh_passenger" departSpeed="max" /><trip id="passenger_779713_21" depart="452.85" from="-183532951#1" to="-282194769#4" departLane="best" type="veh_passenger" departSpeed="max" /><trip id="passenger_779713_22" depart="3169.94" from="282194769#0" to="158466193#1" departLane="best" type="veh_passenger" departSpeed="max" /><trip id="passenger_779713_23" depart="3566.18" from="1019458712" to="109971505" departLane="best" type="veh_passenger" departSpeed="max" /><trip id="passenger_779713_24" depart="3396.36" from="282194769#0" to="109971505" departLane="best" type="veh_passenger" departSpeed="max" /><trip id="passenger_779713_25" depart="735.88" from="282194769#0" to="109971518#0" departLane="best" type="veh_passenger" departSpeed="max" /><trip id="passenger_779713_26" depart="1132.12" from="282194769#0" to="109971518#0" departLane="best" type="veh_passenger" departSpeed="max" /><trip id="passenger_779713_27" depart="1245.33" from="-183532951#1" to="-1019458712" departLane="best" type="veh_passenger" departSpeed="max" /><trip id="passenger_779713_28" depart="1981.21" from="130046557#0" to="158466193#1" departLane="best" type="veh_passenger" departSpeed="max" /><trip id="passenger_779713_29" depart="2037.82" from="-183532951#1" to="109971518#0" departLane="best" type="veh_passenger" departSpeed="max" /><trip id="passenger_779713_30" depart="396.24" from="-158466193#1" to="109971505" departLane="best" type="veh_passenger" departSpeed="max" /><trip id="passenger_779713_31" depart="169.82" from="1019458712" to="109971505" departLane="best" type="veh_passenger" departSpeed="max" /><trip id="passenger_779713_32" depart="113.21" from="820090516#0" to="109971518#0" departLane="best" type="veh_passenger" /><trip id="passenger_779713_33" depart="3509.57" from="282194769#0" to="109971505" departLane="best" type="veh_passenger" departSpeed="max" /><trip id="passenger_779713_34" depart="3339.75" from="130046557#0" to="-183543979#1" departLane="best" type="veh_passenger" departSpeed="max" /><trip id="passenger_779713_35" depart="1868.00" from="130046557#0" to="183543979#0" departLane="best" type="veh_passenger" departSpeed="max" /><trip id="passenger_779713_36" depart="1698.18" from="-158466193#1" to="-282194769#4" departLane="best" type="veh_passenger" departSpeed="max" /><trip id="passenger_779713_37" depart="339.64" from="130046557#0" to="820090516#0" departLane="best" type="veh_passenger" departSpeed="max" /><trip id="passenger_779713_38" depart="905.70" from="-183532951#1" to="-282194769#4" departLane="best" type="veh_passenger" departSpeed="max" /><trip id="passenger_779713_39" depart="1301.94" from="-183532951#1" to="109971518#0" departLane="best" type="veh_passenger" departSpeed="max" /><trip id="passenger_779713_40" depart="1584.97" from="130046557#0" to="-282194769#4" departLane="best" type="veh_passenger" departSpeed="max" /><trip id="passenger_779713_41" depart="3000.12" from="-158466193#0" to="-109972547#1" departLane="best" type="veh_passenger" /><trip id="passenger_779713_42" depart="3226.54" from="-183532951#1" to="-282194769#4" departLane="best" type="veh_passenger" departSpeed="max" /><trip id="passenger_779713_43" depart="3452.97" from="282194769#0" to="109971518#0" departLane="best" type="veh_passenger" departSpeed="max" /><trip id="passenger_779713_44" depart="3283.15" from="-183532951#1" to="-282194769#4" departLane="best" type="veh_passenger" departSpeed="max" /><trip id="passenger_779713_45" depart="566.06" from="130046557#0" to="158466193#1" departLane="best" type="veh_passenger" departSpeed="max" /><trip id="passenger_779713_46" depart="1641.57" from="130046557#0" to="5031493" departLane="best" type="veh_passenger" departSpeed="max" /><trip id="passenger_779713_47" depart="1924.60" from="-158466193#1" to="183543979#0" departLane="best" type="veh_passenger" departSpeed="max" /><trip id="passenger_779713_48" depart="2377.45" from="282194769#0" to="109971505" departLane="best" type="veh_passenger" departSpeed="max" /><trip id="passenger_779713_49" depart="2660.48" from="-183532951#1" to="-1019458712" departLane="best" type="veh_passenger" departSpeed="max" /><trip id="passenger_779713_50" depart="226.42" from="130046557#0" to="-46753244" departLane="best" type="veh_passenger" departSpeed="max" /><trip id="passenger_779713_enh_51" depart="0.00" from="130046557#0" to="158466193#0" type="veh_passenger" color="0,255,255" departLane="best" departSpeed="max" departPos="random" speedFactor="1.12" /><trip id="passenger_779713_enh_52" depart="0.00" from="-183532951#1" to="-820090516#2" type="veh_passenger" color="255,165,0" departLane="best" departSpeed="max" departPos="random" speedFactor="1.09" /><trip id="passenger_779713_enh_53" depart="0.00" from="-182804112" to="-182804115#1" type="veh_passenger" color="139,69,19" departLane="best" departSpeed="max" departPos="random" speedFactor="1.02" /><trip id="passenger_779713_enh_54" depart="1.20" from="1019458712" to="46753244" type="veh_passenger" color="255,20,147" departLane="best" departSpeed="max" departPos="random" speedFactor="0.89" /><trip id="passenger_779713_enh_55" depart="182.46" from="-182804115#1" to="-282194769#4" type="veh_passenger" color="192,192,192" departLane="best" departSpeed="max" departPos="random" speedFactor="0.9" /><trip id="passenger_779713_enh_56" depart="237.09" from="183543979#0" to="-158466193#0" type="veh_passenger" color="128,0,128" departLane="best" departSpeed="max" departPos="random" speedFactor="0.97" /><trip id="passenger_779713_enh_57" depart="257.89" from="-5031527" to="-182804118#2" type="veh_passenger" color="0,255,255" departLane="best" departSpeed="max" departPos="random" speedFactor="1.04" /><trip id="passenger_779713_enh_58" depart="344.90" from="130046557#0" to="-282194769#4" type="veh_passenger" color="255,0,0" departLane="best" departSpeed="max" departPos="random" speedFactor="0.9" /><trip id="passenger_779713_enh_59" depart="453.58" from="-46753244" to="109971518#0" type="veh_passenger" color="0,0,255" departLane="best" departSpeed="max" departPos="random" speedFactor="0.86" /><trip id="passenger_779713_enh_60" depart="456.47" from="282194769#0" to="-5031527" type="veh_passenger" color="128,0,128" departLane="best" departSpeed="max" departPos="random" speedFactor="1.01" /><trip id="passenger_779713_enh_61" depart="511.77" from="-183543979#1" to="-158466193#0" type="veh_passenger" color="50,205,50" departLane="best" departSpeed="max" departPos="random" speedFactor="0.89" /><trip id="passenger_779713_enh_62" depart="516.13" from="-820090516#2" to="-158466193#0" type="veh_passenger" color="50,205,50" departLane="best" departSpeed="max" departPos="random" speedFactor="1.0" /><trip id="passenger_779713_enh_63" depart="708.88" from="-182804118#2" to="158466193#0" type="veh_passenger" color="255,165,0" departLane="best" departSpeed="max" departPos="random" speedFactor="0.87" /><trip id="passenger_779713_enh_64" depart="710.74" from="-158466193#0" to="109971518#0" type="veh_passenger" color="128,0,128" departLane="best" departSpeed="max" departPos="random" speedFactor="1.04" /><trip id="passenger_779713_enh_65" depart="778.87" from="130046557#0" to="-158466193#0" type="veh_passenger" color="128,128,128" departLane="best" departSpeed="max" departPos="random" speedFactor="0.87" /><trip id="passenger_779713_enh_66" depart="882.51" from="-158466193#0" to="109971505" type="veh_passenger" color="139,69,19" departLane="best" departSpeed="max" departPos="random" speedFactor="0.88" /><trip id="passenger_779713_enh_67" depart="882.87" from="130046557#0" to="-46753244" type="veh_passenger" color="0,0,255" departLane="best" departSpeed="max" departPos="random" speedFactor="1.08" /><trip id="passenger_779713_enh_68" depart="937.13" from="109972547#0" to="-1019458712" type="veh_passenger" color="0,128,0" departLane="best" departSpeed="max" departPos="random" speedFactor="0.95" /><trip id="passenger_779713_enh_69" depart="1049.34" from="-183532951#1" to="158466193#1" type="veh_passenger" color="0,0,0" departLane="best" departSpeed="max" departPos="random" speedFactor="1.11" /><trip id="passenger_779713_enh_70" depart="1049.99" from="130046557#0" to="109971505" type="veh_passenger" color="0,0,255" departLane="best" departSpeed="max" departPos="random" speedFactor="0.9" /><trip id="passenger_779713_enh_71" depart="1179.39" from="1019458712" to="182804118#0" type="veh_passenger" color="139,69,19" departLane="best" departSpeed="max" departPos="random" speedFactor="1.06" /><trip id="passenger_779713_enh_72" depart="1212.65" from="182804115#2" to="158466193#0" type="veh_passenger" color="255,255,255" departLane="best" departSpeed="max" departPos="random" speedFactor="1.11" /><trip id="passenger_779713_enh_73" depart="1306.33" from="-109972547#1" to="109972547#2" type="veh_passenger" color="139,69,19" departLane="best" departSpeed="max" departPos="random" speedFactor="0.86" /><trip id="passenger_779713_enh_74" depart="1342.69" from="5031493" to="-282194769#4" type="veh_passenger" color="139,69,19" departLane="best" departSpeed="max" departPos="random" speedFactor="0.89" /><trip id="passenger_779713_enh_75" depart="1376.41" from="-182804112" to="109972547#2" type="veh_passenger" color="192,192,192" departLane="best" departSpeed="max" departPos="random" speedFactor="0.88" /><trip id="passenger_779713_enh_76" depart="1420.90" from="-158466193#1" to="182804118#0" type="veh_passenger" color="139,69,19" departLane="best" departSpeed="max" departPos="random" speedFactor="0.87" /><trip id="passenger_779713_enh_77" depart="1574.33" from="109972547#2" to="-1019458712" type="veh_passenger" color="255,255,255" departLane="best" departSpeed="max" departPos="random" speedFactor="1.09" /><trip id="passenger_779713_enh_78" depart="1575.74" from="158466193#0" to="109971518#0" type="veh_passenger" color="0,0,0" departLane="best" departSpeed="max" departPos="random" speedFactor="0.99" /><trip id="passenger_779713_enh_79" depart="1639.18" from="158466193#0" to="182804118#0" type="veh_passenger" color="255,165,0" departLane="best" departSpeed="max" departPos="random" speedFactor="0.86" /><trip id="passenger_779713_enh_80" depart="1749.50" from="130046557#0" to="158466193#1" type="veh_passenger" color="255,0,0" departLane="best" departSpeed="max" departPos="random" speedFactor="0.91" /><trip id="passenger_779713_enh_81" depart="1792.35" from="130046557#0" to="109971505" type="veh_passenger" color="139,69,19" departLane="best" departSpeed="max" departPos="random" speedFactor="1.02" /><trip id="passenger_779713_enh_82" depart="1835.50" from="-5031527" to="-109972547#1" type="veh_passenger" color="128,128,128" departLane="best" departSpeed="max" departPos="random" speedFactor="1.12" /><trip id="passenger_779713_enh_83" depart="1888.47" from="109972547#2" to="158466193#1" type="veh_passenger" color="139,69,19" departLane="best" departSpeed="max" departPos="random" speedFactor="1.11" /><trip id="passenger_779713_enh_84" depart="1919.42" from="109972547#0" to="109971518#0" type="veh_passenger" color="128,0,128" departLane="best" departSpeed="max" departPos="random" speedFactor="1.09" /><trip id="passenger_779713_enh_85" depart="2093.29" from="-109972547#1" to="158466193#1" type="veh_passenger" color="255,20,147" departLane="best" departSpeed="max" departPos="random" speedFactor="1.03" /><trip id="passenger_779713_enh_86" depart="2101.41" from="182804115#2" to="109971505" type="veh_passenger" color="255,255,0" departLane="best" departSpeed="max" departPos="random" speedFactor="1.09" /><trip id="passenger_779713_enh_87" depart="2125.78" from="130046557#0" to="109972547#0" type="veh_passenger" color="0,0,0" departLane="best" departSpeed="max" departPos="random" speedFactor="1.12" /><trip id="passenger_779713_enh_88" depart="2239.19" from="282194769#0" to="-46753244" type="veh_passenger" color="50,205,50" departLane="best" departSpeed="max" departPos="random" speedFactor="1.14" /><trip id="passenger_779713_enh_89" depart="2264.09" from="130046557#0" to="-1019458712" type="veh_passenger" color="192,192,192" departLane="best" departSpeed="max" departPos="random" speedFactor="0.96" /><trip id="passenger_779713_enh_90" depart="2367.19" from="158466193#0" to="109971505" type="veh_passenger" color="128,128,128" departLane="best" departSpeed="max" departPos="random" speedFactor="1.06" /><trip id="passenger_779713_enh_91" depart="2376.43" from="182804118#0" to="158466193#1" type="veh_passenger" color="0,255,255" departLane="best" departSpeed="max" departPos="random" speedFactor="1.09" /><trip id="passenger_779713_enh_92" depart="2446.18" from="182804115#2" to="-1019458712" type="veh_passenger" color="255,20,147" departLane="best" departSpeed="max" departPos="random" speedFactor="1.1" /><trip id="passenger_779713_enh_93" depart="2585.53" from="-158466193#1" to="-5031527" type="veh_passenger" color="255,255,255" departLane="best" departSpeed="max" departPos="random" speedFactor="0.96" /><trip id="passenger_779713_enh_94" depart="2609.49" from="-183532951#1" to="-282194769#4" type="veh_passenger" color="0,0,0" departLane="best" departSpeed="max" departPos="random" speedFactor="1.05" /><trip id="passenger_779713_enh_95" depart="2651.00" from="-158466193#1" to="820090516#0" type="veh_passenger" color="128,128,128" departLane="best" departSpeed="max" departPos="random" speedFactor="0.97" /><trip id="passenger_779713_enh_96" depart="2663.94" from="-182804118#2" to="109971505" type="veh_passenger" color="255,165,0" departLane="best" departSpeed="max" departPos="random" speedFactor="1.05" /><trip id="passenger_779713_enh_97" depart="2783.82" from="-183532951#1" to="158466193#0" type="veh_passenger" color="50,205,50" departLane="best" departSpeed="max" departPos="random" speedFactor="1.03" /><trip id="passenger_779713_enh_98" depart="2817.81" from="-183532951#1" to="109971518#0" type="veh_passenger" color="0,128,0" departLane="best" departSpeed="max" departPos="random" speedFactor="0.99" /><trip id="passenger_779713_enh_99" depart="2901.07" from="130046557#0" to="109971505" type="veh_passenger" color="50,205,50" departLane="best" departSpeed="max" departPos="random" speedFactor="1.02" /><trip id="passenger_779713_enh_100" depart="2970.42" from="282194769#0" to="183543979#0" type="veh_passenger" color="255,255,255" departLane="best" departSpeed="max" departPos="random" speedFactor="0.97" /><trip id="passenger_779713_enh_101" depart="3058.32" from="282194769#0" to="-158466193#0" type="veh_passenger" color="128,0,128" departLane="best" departSpeed="max" departPos="random" speedFactor="0.97" /><trip id="passenger_779713_enh_102" depart="3106.29" from="-5031527" to="109971505" type="veh_passenger" color="0,0,255" departLane="best" departSpeed="max" departPos="random" speedFactor="0.96" /><trip id="passenger_779713_enh_103" depart="3128.91" from="-158466193#1" to="-183543979#1" type="veh_passenger" color="255,165,0" departLane="best" departSpeed="max" departPos="random" speedFactor="0.97" /><trip id="passenger_779713_enh_104" depart="3157.58" from="-183532951#1" to="-282194769#4" type="veh_passenger" color="255,20,147" departLane="best" departSpeed="max" departPos="random" speedFactor="0.98" /><trip id="passenger_779713_enh_105" depart="3296.12" from="-158466193#1" to="109971505" type="veh_passenger" color="139,69,19" departLane="best" departSpeed="max" departPos="random" speedFactor="0.95" /><trip id="passenger_779713_enh_106" depart="3315.17" from="-183532951#1" to="-1019458712" type="veh_passenger" color="255,255,255" departLane="best" departSpeed="max" departPos="random" speedFactor="1.14" /><trip id="passenger_779713_enh_107" depart="3446.34" from="820090516#0" to="158466193#1" type="veh_passenger" color="255,255,255" departLane="best" departSpeed="max" departPos="random" speedFactor="0.89" /><trip id="passenger_779713_enh_108" depart="3490.83" from="-158466193#1" to="820090516#0" type="veh_passenger" color="128,128,128" departLane="best" departSpeed="max" departPos="random" speedFactor="0.88" /><trip id="passenger_779713_enh_109" depart="3546.43" from="130046557#0" to="109971505" type="veh_passenger" color="0,128,0" departLane="best" departSpeed="max" departPos="random" speedFactor="1.0" /><trip id="passenger_779713_enh_110" depart="3547.09" from="130046557#0" to="820090516#0" type="veh_passenger" color="0,0,255" departLane="best" departSpeed="max" departPos="random" speedFactor="1.05" /></routes>