<?xml version='1.0' encoding='utf-8'?>
<routes xmlns:xsi="http://www.w3.org/2001/XMLSchema-instance" xsi:noNamespaceSchemaLocation="http://sumo.dlr.de/xsd/routes_file.xsd"><vType id="motorcycle_motorcycle" vClass="motorcycle" guiShape="motorcycle" color="255,0,0" maxSpeed="50.0" length="2.5" />
    <trip id="motorcycle_786684_0" depart="0.00" from="-158466193#0" to="158466193#0" departLane="best" type="motorcycle_motorcycle" /><trip id="motorcycle_786684_1" depart="1018.91" from="109972547#0" to="158466193#1" departLane="best" type="motorcycle_motorcycle" /><trip id="motorcycle_786684_2" depart="169.82" from="-182804112" to="-820090516#2" departLane="best" type="motorcycle_motorcycle" /><trip id="motorcycle_786684_3" depart="679.27" from="-109972547#1" to="-820090516#2" departLane="best" type="motorcycle_motorcycle" /><trip id="motorcycle_786684_4" depart="3056.72" from="109972547#2" to="5031493" departLane="best" type="motorcycle_motorcycle" /><trip id="motorcycle_786684_5" depart="509.45" from="-820090516#2" to="109971505" departLane="best" type="motorcycle_motorcycle" /><trip id="motorcycle_786684_6" depart="2886.91" from="-158466193#1" to="182804118#0" departLane="best" type="motorcycle_motorcycle" departSpeed="max" /><trip id="motorcycle_786684_7" depart="3396.36" from="130046557#0" to="182804115#2" departLane="best" type="motorcycle_motorcycle" departSpeed="max" /><trip id="motorcycle_786684_8" depart="1358.54" from="282194769#0" to="182804115#2" departLane="best" type="motorcycle_motorcycle" departSpeed="max" /><trip id="motorcycle_786684_9" depart="1698.18" from="1019458712" to="109971505" departLane="best" type="motorcycle_motorcycle" departSpeed="max" /><trip id="motorcycle_786684_10" depart="3566.18" from="46753244" to="-282194769#4" departLane="best" type="motorcycle_motorcycle" /><trip id="motorcycle_786684_11" depart="2037.82" from="1019458712" to="109971518#0" departLane="best" type="motorcycle_motorcycle" departSpeed="max" /><trip id="motorcycle_786684_12" depart="2717.09" from="282194769#0" to="109971505" departLane="best" type="motorcycle_motorcycle" departSpeed="max" /><trip id="motorcycle_786684_13" depart="339.64" from="130046557#0" to="182804115#2" departLane="best" type="motorcycle_motorcycle" departSpeed="max" /><trip id="motorcycle_786684_14" depart="2207.63" from="-46753244" to="-1019458712" departLane="best" type="motorcycle_motorcycle" /><trip id="motorcycle_786684_15" depart="1868.00" from="182804118#0" to="109971518#0" departLane="best" type="motorcycle_motorcycle" /><trip id="motorcycle_786684_16" depart="1188.73" from="-820090516#2" to="-182804112" departLane="best" type="motorcycle_motorcycle" /><trip id="motorcycle_786684_enh_17" depart="0.00" from="-182804118#2" to="-1019458712" type="motorcycle_motorcycle" color="255,0,0" departLane="best" departSpeed="max" departPos="random" speedFactor="1.01" /><trip id="motorcycle_786684_enh_18" depart="0.00" from="-820090516#2" to="109971505" type="motorcycle_motorcycle" color="128,0,128" departLane="best" departSpeed="max" departPos="random" speedFactor="1.09" /><trip id="motorcycle_786684_enh_19" depart="0.00" from="158466193#0" to="109971518#0" type="motorcycle_motorcycle" color="0,0,0" departLane="best" departSpeed="max" departPos="random" speedFactor="0.87" /><trip id="motorcycle_786684_enh_20" depart="1.20" from="-5031527" to="109972547#0" type="motorcycle_motorcycle" color="255,165,0" departLane="best" departSpeed="max" departPos="random" speedFactor="0.97" /><trip id="motorcycle_786684_enh_21" depart="182.46" from="-158466193#1" to="-282194769#4" type="motorcycle_motorcycle" color="255,255,255" departLane="best" departSpeed="max" departPos="random" speedFactor="0.9" /><trip id="motorcycle_786684_enh_22" depart="237.09" from="-158466193#1" to="-820090516#2" type="motorcycle_motorcycle" color="255,255,0" departLane="best" departSpeed="max" departPos="random" speedFactor="0.86" /><trip id="motorcycle_786684_enh_23" depart="257.89" from="-5031527" to="-820090516#2" type="motorcycle_motorcycle" color="128,0,128" departLane="best" departSpeed="max" departPos="random" speedFactor="1.01" /><trip id="motorcycle_786684_enh_24" depart="344.90" from="-158466193#1" to="-282194769#4" type="motorcycle_motorcycle" color="0,0,0" departLane="best" departSpeed="max" departPos="random" speedFactor="0.99" /><trip id="motorcycle_786684_enh_25" depart="453.58" from="-158466193#0" to="-182804112" type="motorcycle_motorcycle" color="128,0,128" departLane="best" departSpeed="max" departPos="random" speedFactor="0.96" /><trip id="motorcycle_786684_enh_26" depart="456.47" from="183543979#0" to="-1019458712" type="motorcycle_motorcycle" color="0,0,255" departLane="best" departSpeed="max" departPos="random" speedFactor="1.05" /><trip id="motorcycle_786684_enh_27" depart="511.77" from="-158466193#1" to="5031493" type="motorcycle_motorcycle" color="255,255,0" departLane="best" departSpeed="max" departPos="random" speedFactor="0.89" /><trip id="motorcycle_786684_enh_28" depart="516.13" from="183543979#0" to="-1019458712" type="motorcycle_motorcycle" color="0,0,255" departLane="best" departSpeed="max" departPos="random" speedFactor="0.9" /><trip id="motorcycle_786684_enh_29" depart="708.88" from="-820090516#2" to="-158466193#0" type="motorcycle_motorcycle" color="255,165,0" departLane="best" departSpeed="max" departPos="random" speedFactor="0.95" /><trip id="motorcycle_786684_enh_30" depart="710.74" from="-182804112" to="-182804115#1" type="motorcycle_motorcycle" color="0,0,0" departLane="best" departSpeed="max" departPos="random" speedFactor="1.11" /><trip id="motorcycle_786684_enh_31" depart="778.87" from="-183543979#1" to="158466193#1" type="motorcycle_motorcycle" color="255,255,0" departLane="best" departSpeed="max" departPos="random" speedFactor="0.9" /><trip id="motorcycle_786684_enh_32" depart="882.51" from="-182804112" to="183543979#0" type="motorcycle_motorcycle" color="255,0,0" departLane="best" departSpeed="max" departPos="random" speedFactor="1.11" /><trip id="motorcycle_786684_enh_33" depart="882.87" from="130046557#0" to="182804115#2" type="motorcycle_motorcycle" color="255,0,0" departLane="best" departSpeed="max" departPos="random" speedFactor="0.96" /><trip id="motorcycle_786684_enh_34" depart="937.13" from="-158466193#0" to="-282194769#4" type="motorcycle_motorcycle" color="0,0,0" departLane="best" departSpeed="max" departPos="random" speedFactor="0.91" /><trip id="motorcycle_786684_enh_35" depart="1049.34" from="1019458712" to="182804115#2" type="motorcycle_motorcycle" color="0,0,255" departLane="best" departSpeed="max" departPos="random" speedFactor="0.88" /><trip id="motorcycle_786684_enh_36" depart="1049.99" from="-158466193#0" to="5031493" type="motorcycle_motorcycle" color="255,0,0" departLane="best" departSpeed="max" departPos="random" speedFactor="0.98" /><trip id="motorcycle_786684_enh_37" depart="1179.39" from="-820090516#2" to="158466193#1" type="motorcycle_motorcycle" color="0,0,0" departLane="best" departSpeed="max" departPos="random" speedFactor="0.99" /><trip id="motorcycle_786684_enh_38" depart="1212.65" from="282194769#0" to="109972547#0" type="motorcycle_motorcycle" color="255,0,0" departLane="best" departSpeed="max" departPos="random" speedFactor="0.9" /><trip id="motorcycle_786684_enh_39" depart="1306.33" from="-158466193#0" to="-182804118#2" type="motorcycle_motorcycle" color="0,0,0" departLane="best" departSpeed="max" departPos="random" speedFactor="1.08" /><trip id="motorcycle_786684_enh_40" depart="1342.69" from="-158466193#0" to="109972547#0" type="motorcycle_motorcycle" color="255,165,0" departLane="best" departSpeed="max" departPos="random" speedFactor="0.88" /><trip id="motorcycle_786684_enh_41" depart="1376.41" from="282194769#0" to="-820090516#2" type="motorcycle_motorcycle" color="255,255,255" departLane="best" departSpeed="max" departPos="random" speedFactor="1.05" /><trip id="motorcycle_786684_enh_42" depart="1420.90" from="182804115#2" to="109971505" type="motorcycle_motorcycle" color="128,0,128" departLane="best" departSpeed="max" departPos="random" speedFactor="1.09" /><trip id="motorcycle_786684_enh_43" depart="1574.33" from="-5031527" to="182804118#0" type="motorcycle_motorcycle" color="0,0,0" departLane="best" departSpeed="max" departPos="random" speedFactor="0.95" /><trip id="motorcycle_786684_enh_44" depart="1575.74" from="282194769#0" to="-182804115#1" type="motorcycle_motorcycle" color="0,0,0" departLane="best" departSpeed="max" departPos="random" speedFactor="1.12" /><trip id="motorcycle_786684_enh_45" depart="1639.18" from="109972547#2" to="-1019458712" type="motorcycle_motorcycle" color="0,128,0" departLane="best" departSpeed="max" departPos="random" speedFactor="0.9" /><trip id="motorcycle_786684_enh_46" depart="1749.50" from="1019458712" to="109971518#0" type="motorcycle_motorcycle" color="255,0,0" departLane="best" departSpeed="max" departPos="random" speedFactor="1.07" /><trip id="motorcycle_786684_enh_47" depart="1792.35" from="-820090516#2" to="158466193#1" type="motorcycle_motorcycle" color="0,128,0" departLane="best" departSpeed="max" departPos="random" speedFactor="1.08" /><trip id="motorcycle_786684_enh_48" depart="1835.50" from="109972547#2" to="183543979#0" type="motorcycle_motorcycle" color="255,165,0" departLane="best" departSpeed="max" departPos="random" speedFactor="0.86" /><trip id="motorcycle_786684_enh_49" depart="1888.47" from="5031493" to="-158466193#0" type="motorcycle_motorcycle" color="0,0,0" departLane="best" departSpeed="max" departPos="random" speedFactor="1.05" /><trip id="motorcycle_786684_enh_50" depart="1919.42" from="1019458712" to="820090516#0" type="motorcycle_motorcycle" color="0,0,255" departLane="best" departSpeed="max" departPos="random" speedFactor="0.97" /><trip id="motorcycle_786684_enh_51" depart="2093.29" from="820090516#0" to="109971505" type="motorcycle_motorcycle" color="128,0,128" departLane="best" departSpeed="max" departPos="random" speedFactor="0.97" /><trip id="motorcycle_786684_enh_52" depart="2101.41" from="820090516#0" to="109971518#0" type="motorcycle_motorcycle" color="255,255,255" departLane="best" departSpeed="max" departPos="random" speedFactor="1.11" /><trip id="motorcycle_786684_enh_53" depart="2125.78" from="109972547#2" to="158466193#0" type="motorcycle_motorcycle" color="255,0,0" departLane="best" departSpeed="max" departPos="random" speedFactor="0.97" /><trip id="motorcycle_786684_enh_54" depart="2239.19" from="-158466193#1" to="820090516#0" type="motorcycle_motorcycle" color="128,0,128" departLane="best" departSpeed="max" departPos="random" speedFactor="0.97" /><trip id="motorcycle_786684_enh_55" depart="2264.09" from="1019458712" to="109971518#0" type="motorcycle_motorcycle" color="255,255,0" departLane="best" departSpeed="max" departPos="random" speedFactor="0.96" /><trip id="motorcycle_786684_enh_56" depart="2367.19" from="183543979#0" to="-1019458712" type="motorcycle_motorcycle" color="255,165,0" departLane="best" departSpeed="max" departPos="random" speedFactor="0.87" /><trip id="motorcycle_786684_enh_57" depart="2376.43" from="158466193#0" to="5031493" type="motorcycle_motorcycle" color="128,0,128" departLane="best" departSpeed="max" departPos="random" speedFactor="0.88" /><trip id="motorcycle_786684_enh_58" depart="2446.18" from="-109972547#1" to="158466193#1" type="motorcycle_motorcycle" color="0,128,0" departLane="best" departSpeed="max" departPos="random" speedFactor="0.9" /><trip id="motorcycle_786684_enh_59" depart="2585.53" from="-158466193#0" to="-182804115#1" type="motorcycle_motorcycle" color="255,0,0" departLane="best" departSpeed="max" departPos="random" speedFactor="0.89" /><trip id="motorcycle_786684_enh_60" depart="2609.49" from="-158466193#1" to="-5031527" type="motorcycle_motorcycle" color="0,0,255" departLane="best" departSpeed="max" departPos="random" speedFactor="0.88" /><trip id="motorcycle_786684_enh_61" depart="2651.00" from="282194769#0" to="-46753244" type="motorcycle_motorcycle" color="255,165,0" departLane="best" departSpeed="max" departPos="random" speedFactor="1.0" /><trip id="motorcycle_786684_enh_62" depart="2663.94" from="-158466193#1" to="109971518#0" type="motorcycle_motorcycle" color="255,255,0" departLane="best" departSpeed="max" departPos="random" speedFactor="1.05" /><trip id="motorcycle_786684_enh_63" depart="2783.82" from="182804115#2" to="-158466193#0" type="motorcycle_motorcycle" color="0,0,255" departLane="best" departSpeed="max" departPos="random" speedFactor="1.07" /><trip id="motorcycle_786684_enh_64" depart="2817.81" from="-183543979#1" to="109972547#2" type="motorcycle_motorcycle" color="0,128,0" departLane="best" departSpeed="max" departPos="random" speedFactor="1.15" /><trip id="motorcycle_786684_enh_65" depart="2901.07" from="130046557#0" to="109972547#2" type="motorcycle_motorcycle" color="255,255,0" departLane="best" departSpeed="max" departPos="random" speedFactor="1.09" /><trip id="motorcycle_786684_enh_66" depart="2970.42" from="282194769#0" to="158466193#1" type="motorcycle_motorcycle" color="0,0,0" departLane="best" departSpeed="max" departPos="random" speedFactor="0.87" /><trip id="motorcycle_786684_enh_67" depart="3058.32" from="-182804118#2" to="158466193#1" type="motorcycle_motorcycle" color="128,0,128" departLane="best" departSpeed="max" departPos="random" speedFactor="0.91" /><trip id="motorcycle_786684_enh_68" depart="3106.29" from="130046557#0" to="182804118#0" type="motorcycle_motorcycle" color="128,0,128" departLane="best" departSpeed="max" departPos="random" speedFactor="1.05" /><trip id="motorcycle_786684_enh_69" depart="3128.91" from="282194769#0" to="-1019458712" type="motorcycle_motorcycle" color="128,0,128" departLane="best" departSpeed="max" departPos="random" speedFactor="0.98" /><trip id="motorcycle_786684_enh_70" depart="3157.58" from="182804118#0" to="-158466193#0" type="motorcycle_motorcycle" color="255,255,0" departLane="best" departSpeed="max" departPos="random" speedFactor="0.96" /><trip id="motorcycle_786684_enh_71" depart="3296.12" from="-183532951#1" to="-1019458712" type="motorcycle_motorcycle" color="0,128,0" departLane="best" departSpeed="max" departPos="random" speedFactor="1.01" /><trip id="motorcycle_786684_enh_72" depart="3315.17" from="-182804112" to="109971505" type="motorcycle_motorcycle" color="0,0,0" departLane="best" departSpeed="max" departPos="random" speedFactor="0.94" /><trip id="motorcycle_786684_enh_73" depart="3446.34" from="130046557#0" to="-109972547#1" type="motorcycle_motorcycle" color="255,0,0" departLane="best" departSpeed="max" departPos="random" speedFactor="0.86" /><trip id="motorcycle_786684_enh_74" depart="3490.83" from="5031493" to="-1019458712" type="motorcycle_motorcycle" color="255,165,0" departLane="best" departSpeed="max" departPos="random" speedFactor="0.99" /><trip id="motorcycle_786684_enh_75" depart="3546.43" from="183543979#0" to="158466193#1" type="motorcycle_motorcycle" color="0,0,255" departLane="best" departSpeed="max" departPos="random" speedFactor="1.0" /><trip id="motorcycle_786684_enh_76" depart="3547.09" from="46753244" to="-158466193#0" type="motorcycle_motorcycle" color="255,165,0" departLane="best" departSpeed="max" departPos="random" speedFactor="1.07" /></routes>