<?xml version='1.0' encoding='utf-8'?>
<routes xmlns:xsi="http://www.w3.org/2001/XMLSchema-instance" xsi:noNamespaceSchemaLocation="http://sumo.dlr.de/xsd/routes_file.xsd"><vType id="truck_truck" vClass="truck" guiShape="truck" color="255,255,255" maxSpeed="25.0" length="10.0" />
    <trip id="truck_784540_0" depart="0.00" from="-158466193#0" to="109971518#0" departLane="best" type="truck_truck" /><trip id="truck_784540_1" depart="1018.91" from="1019458712" to="109971518#0" departLane="best" type="truck_truck" departSpeed="max" /><trip id="truck_784540_2" depart="3481.27" from="130046557#0" to="158466193#0" departLane="best" type="truck_truck" departSpeed="max" /><trip id="truck_784540_3" depart="2037.82" from="130046557#0" to="158466193#1" departLane="best" type="truck_truck" departSpeed="max" /><trip id="truck_784540_4" depart="2971.82" from="-158466193#1" to="109971518#0" departLane="best" type="truck_truck" departSpeed="max" /><trip id="truck_784540_5" depart="1952.91" from="-5031527" to="109971518#0" departLane="best" type="truck_truck" /><trip id="truck_784540_6" depart="1188.73" from="130046557#0" to="-1019458712" departLane="best" type="truck_truck" departSpeed="max" /><trip id="truck_784540_7" depart="1103.82" from="130046557#0" to="-1019458712" departLane="best" type="truck_truck" departSpeed="max" /><trip id="truck_784540_8" depart="2886.91" from="130046557#0" to="-1019458712" departLane="best" type="truck_truck" departSpeed="max" /><trip id="truck_784540_9" depart="3226.54" from="-158466193#0" to="109971518#0" departLane="best" type="truck_truck" /><trip id="truck_784540_10" depart="1273.64" from="130046557#0" to="158466193#1" departLane="best" type="truck_truck" departSpeed="max" /><trip id="truck_784540_11" depart="1613.27" from="130046557#0" to="-1019458712" departLane="best" type="truck_truck" departSpeed="max" /><trip id="truck_784540_12" depart="1443.45" from="130046557#0" to="158466193#1" departLane="best" type="truck_truck" departSpeed="max" /><trip id="truck_784540_13" depart="2547.27" from="1019458712" to="109971518#0" departLane="best" type="truck_truck" departSpeed="max" /><trip id="truck_784540_14" depart="2122.73" from="-158466193#1" to="109971518#0" departLane="best" type="truck_truck" departSpeed="max" /><trip id="truck_784540_15" depart="764.18" from="130046557#0" to="-158466193#0" departLane="best" type="truck_truck" departSpeed="max" /><trip id="truck_784540_16" depart="339.64" from="130046557#0" to="158466193#1" departLane="best" type="truck_truck" departSpeed="max" /><trip id="truck_784540_17" depart="3056.72" from="1019458712" to="109971518#0" departLane="best" type="truck_truck" departSpeed="max" /><trip id="truck_784540_18" depart="424.55" from="130046557#0" to="-1019458712" departLane="best" type="truck_truck" departSpeed="max" /><trip id="truck_784540_19" depart="679.27" from="-158466193#1" to="109971518#0" departLane="best" type="truck_truck" departSpeed="max" /><trip id="truck_784540_20" depart="3566.18" from="158466193#0" to="109971518#0" departLane="best" type="truck_truck" /><trip id="truck_784540_21" depart="934.00" from="130046557#0" to="-1019458712" departLane="best" type="truck_truck" departSpeed="max" /><trip id="truck_784540_22" depart="1528.36" from="1019458712" to="109971518#0" departLane="best" type="truck_truck" departSpeed="max" /><trip id="truck_784540_23" depart="1783.09" from="-158466193#1" to="109971518#0" departLane="best" type="truck_truck" departSpeed="max" /><trip id="truck_784540_24" depart="1868.00" from="130046557#0" to="-158466193#0" departLane="best" type="truck_truck" departSpeed="max" /><trip id="truck_784540_25" depart="2377.45" from="1019458712" to="109971518#0" departLane="best" type="truck_truck" departSpeed="max" /><trip id="truck_784540_26" depart="3141.63" from="-158466193#1" to="109971518#0" departLane="best" type="truck_truck" departSpeed="max" /><trip id="truck_784540_27" depart="2632.18" from="-158466193#1" to="109971518#0" departLane="best" type="truck_truck" departSpeed="max" /><trip id="truck_784540_28" depart="2717.09" from="130046557#0" to="158466193#0" departLane="best" type="truck_truck" departSpeed="max" /><trip id="truck_784540_29" depart="3396.36" from="1019458712" to="109971518#0" departLane="best" type="truck_truck" departSpeed="max" /><trip id="truck_784540_30" depart="509.45" from="158466193#0" to="109971518#0" departLane="best" type="truck_truck" /><trip id="truck_784540_31" depart="3311.45" from="130046557#0" to="158466193#1" departLane="best" type="truck_truck" departSpeed="max" /><trip id="truck_784540_32" depart="2802.00" from="130046557#0" to="-1019458712" departLane="best" type="truck_truck" departSpeed="max" /><trip id="truck_784540_33" depart="254.73" from="-158466193#1" to="109971518#0" departLane="best" type="truck_truck" departSpeed="max" /><trip id="truck_784540_enh_34" depart="0.00" from="130046557#0" to="46753244" type="truck_truck" color="0,0,255" departLane="best" departSpeed="max" departPos="random" speedFactor="0.94" /><trip id="truck_784540_enh_35" depart="0.00" from="130046557#0" to="-5031527" type="truck_truck" color="255,255,255" departLane="best" departSpeed="max" departPos="random" speedFactor="1.01" /><trip id="truck_784540_enh_36" depart="0.00" from="-109972547#1" to="109971518#0" type="truck_truck" color="0,128,0" departLane="best" departSpeed="max" departPos="random" speedFactor="1.04" /><trip id="truck_784540_enh_37" depart="1.37" from="-158466193#0" to="109971518#0" type="truck_truck" color="255,0,0" departLane="best" departSpeed="max" departPos="random" speedFactor="1.09" /><trip id="truck_784540_enh_38" depart="182.46" from="1019458712" to="-46753244" type="truck_truck" color="0,0,255" departLane="best" departSpeed="max" departPos="random" speedFactor="1.03" /><trip id="truck_784540_enh_39" depart="220.76" from="-820090516#2" to="158466193#1" type="truck_truck" color="255,255,255" departLane="best" departSpeed="max" departPos="random" speedFactor="1.0" /><trip id="truck_784540_enh_40" depart="257.89" from="130046557#0" to="-1019458712" type="truck_truck" color="255,0,0" departLane="best" departSpeed="max" departPos="random" speedFactor="1.07" /><trip id="truck_784540_enh_41" depart="345.84" from="-158466193#0" to="109971518#0" type="truck_truck" color="0,128,0" departLane="best" departSpeed="max" departPos="random" speedFactor="0.91" /><trip id="truck_784540_enh_42" depart="445.94" from="-183532951#1" to="-158466193#0" type="truck_truck" color="255,0,0" departLane="best" departSpeed="max" departPos="random" speedFactor="0.93" /><trip id="truck_784540_enh_43" depart="475.02" from="130046557#0" to="182804115#2" type="truck_truck" color="255,0,0" departLane="best" departSpeed="max" departPos="random" speedFactor="1.15" /><trip id="truck_784540_enh_44" depart="511.77" from="130046557#0" to="-282194769#4" type="truck_truck" color="0,0,255" departLane="best" departSpeed="max" departPos="random" speedFactor="0.92" /><trip id="truck_784540_enh_45" depart="522.80" from="-182804112" to="109971518#0" type="truck_truck" color="128,128,128" departLane="best" departSpeed="max" departPos="random" speedFactor="0.99" /><trip id="truck_784540_enh_46" depart="699.40" from="183543979#0" to="109971518#0" type="truck_truck" color="255,0,0" departLane="best" departSpeed="max" departPos="random" speedFactor="0.96" /><trip id="truck_784540_enh_47" depart="708.88" from="130046557#0" to="-183543979#1" type="truck_truck" color="255,255,255" departLane="best" departSpeed="max" departPos="random" speedFactor="1.05" /><trip id="truck_784540_enh_48" depart="778.87" from="1019458712" to="109971505" type="truck_truck" color="255,255,0" departLane="best" departSpeed="max" departPos="random" speedFactor="0.93" /><trip id="truck_784540_enh_49" depart="882.87" from="1019458712" to="109971505" type="truck_truck" color="255,255,255" departLane="best" departSpeed="max" departPos="random" speedFactor="1.02" /><trip id="truck_784540_enh_50" depart="887.38" from="-183532951#1" to="158466193#1" type="truck_truck" color="255,255,255" departLane="best" departSpeed="max" departPos="random" speedFactor="0.9" /><trip id="truck_784540_enh_51" depart="935.51" from="130046557#0" to="158466193#1" type="truck_truck" color="0,128,0" departLane="best" departSpeed="max" departPos="random" speedFactor="1.15" /><trip id="truck_784540_enh_52" depart="1049.34" from="-183532951#1" to="158466193#1" type="truck_truck" color="0,0,0" departLane="best" departSpeed="max" departPos="random" speedFactor="0.99" /><trip id="truck_784540_enh_53" depart="1057.62" from="130046557#0" to="-1019458712" type="truck_truck" color="0,128,0" departLane="best" departSpeed="max" departPos="random" speedFactor="0.86" /><trip id="truck_784540_enh_54" depart="1190.40" from="1019458712" to="109971505" type="truck_truck" color="128,128,128" departLane="best" departSpeed="max" departPos="random" speedFactor="1.1" /><trip id="truck_784540_enh_55" depart="1212.65" from="1019458712" to="109971505" type="truck_truck" color="255,255,0" departLane="best" departSpeed="max" departPos="random" speedFactor="1.14" /><trip id="truck_784540_enh_56" depart="1322.88" from="-158466193#1" to="109971505" type="truck_truck" color="0,128,0" departLane="best" departSpeed="max" departPos="random" speedFactor="0.92" /><trip id="truck_784540_enh_57" depart="1324.56" from="-5031527" to="109971518#0" type="truck_truck" color="255,255,255" departLane="best" departSpeed="max" departPos="random" speedFactor="0.96" /><trip id="truck_784540_enh_58" depart="1376.41" from="1019458712" to="109971505" type="truck_truck" color="255,255,0" departLane="best" departSpeed="max" departPos="random" speedFactor="0.89" /><trip id="truck_784540_enh_59" depart="1401.90" from="-158466193#1" to="109971505" type="truck_truck" color="0,0,255" departLane="best" departSpeed="max" departPos="random" speedFactor="0.88" /><trip id="truck_784540_enh_60" depart="1574.33" from="130046557#0" to="-1019458712" type="truck_truck" color="255,255,0" departLane="best" departSpeed="max" departPos="random" speedFactor="0.87" /><trip id="truck_784540_enh_61" depart="1575.74" from="130046557#0" to="-158466193#0" type="truck_truck" color="255,255,255" departLane="best" departSpeed="max" departPos="random" speedFactor="1.09" /><trip id="truck_784540_enh_62" depart="1652.75" from="130046557#0" to="158466193#0" type="truck_truck" color="128,128,128" departLane="best" departSpeed="max" departPos="random" speedFactor="0.99" /><trip id="truck_784540_enh_63" depart="1750.26" from="130046557#0" to="-1019458712" type="truck_truck" color="0,0,255" departLane="best" departSpeed="max" departPos="random" speedFactor="0.86" /><trip id="truck_784540_enh_64" depart="1791.77" from="-158466193#1" to="109971518#0" type="truck_truck" color="128,128,128" departLane="best" departSpeed="max" departPos="random" speedFactor="0.91" /><trip id="truck_784540_enh_65" depart="1856.49" from="130046557#0" to="158466193#0" type="truck_truck" color="255,255,0" departLane="best" departSpeed="max" departPos="random" speedFactor="1.02" /><trip id="truck_784540_enh_66" depart="1890.06" from="-158466193#1" to="109971518#0" type="truck_truck" color="255,255,255" departLane="best" departSpeed="max" departPos="random" speedFactor="1.12" /><trip id="truck_784540_enh_67" depart="1919.42" from="-158466193#1" to="109971505" type="truck_truck" color="255,255,0" departLane="best" departSpeed="max" departPos="random" speedFactor="1.11" /><trip id="truck_784540_enh_68" depart="2093.29" from="130046557#0" to="158466193#1" type="truck_truck" color="255,0,0" departLane="best" departSpeed="max" departPos="random" speedFactor="1.09" /><trip id="truck_784540_enh_69" depart="2100.52" from="130046557#0" to="-1019458712" type="truck_truck" color="0,128,0" departLane="best" departSpeed="max" departPos="random" speedFactor="1.03" /><trip id="truck_784540_enh_70" depart="2131.48" from="130046557#0" to="109972547#2" type="truck_truck" color="0,0,0" departLane="best" departSpeed="max" departPos="random" speedFactor="1.09" /><trip id="truck_784540_enh_71" depart="2222.24" from="-158466193#1" to="109971518#0" type="truck_truck" color="128,128,128" departLane="best" departSpeed="max" departPos="random" speedFactor="1.12" /><trip id="truck_784540_enh_72" depart="2271.18" from="130046557#0" to="158466193#1" type="truck_truck" color="0,128,0" departLane="best" departSpeed="max" departPos="random" speedFactor="1.14" /><trip id="truck_784540_enh_73" depart="2365.61" from="158466193#0" to="109971518#0" type="truck_truck" color="0,0,255" departLane="best" departSpeed="max" departPos="random" speedFactor="0.96" /><trip id="truck_784540_enh_74" depart="2365.67" from="1019458712" to="109971518#0" type="truck_truck" color="255,255,255" departLane="best" departSpeed="max" departPos="random" speedFactor="1.06" /><trip id="truck_784540_enh_75" depart="2446.18" from="130046557#0" to="158466193#1" type="truck_truck" color="255,255,0" departLane="best" departSpeed="max" departPos="random" speedFactor="1.09" /><trip id="truck_784540_enh_76" depart="2606.41" from="130046557#0" to="158466193#0" type="truck_truck" color="0,128,0" departLane="best" departSpeed="max" departPos="random" speedFactor="1.1" /><trip id="truck_784540_enh_77" depart="2611.87" from="-158466193#1" to="109971518#0" type="truck_truck" color="255,255,255" departLane="best" departSpeed="max" departPos="random" speedFactor="0.96" /><trip id="truck_784540_enh_78" depart="2651.00" from="-158466193#0" to="109971518#0" type="truck_truck" color="128,128,128" departLane="best" departSpeed="max" departPos="random" speedFactor="1.05" /><trip id="truck_784540_enh_79" depart="2661.16" from="130046557#0" to="109972547#2" type="truck_truck" color="255,255,255" departLane="best" departSpeed="max" departPos="random" speedFactor="0.97" /><trip id="truck_784540_enh_80" depart="2767.64" from="-158466193#1" to="109971518#0" type="truck_truck" color="0,0,255" departLane="best" departSpeed="max" departPos="random" speedFactor="1.05" /><trip id="truck_784540_enh_81" depart="2822.60" from="-158466193#1" to="109971518#0" type="truck_truck" color="0,128,0" departLane="best" departSpeed="max" departPos="random" speedFactor="1.03" /><trip id="truck_784540_enh_82" depart="2900.05" from="-158466193#1" to="109971518#0" type="truck_truck" color="255,0,0" departLane="best" departSpeed="max" departPos="random" speedFactor="0.99" /><trip id="truck_784540_enh_83" depart="2952.24" from="130046557#0" to="109972547#2" type="truck_truck" color="0,128,0" departLane="best" departSpeed="max" departPos="random" speedFactor="1.02" /><trip id="truck_784540_enh_84" depart="3049.32" from="-158466193#1" to="109971518#0" type="truck_truck" color="255,255,255" departLane="best" departSpeed="max" departPos="random" speedFactor="0.97" /><trip id="truck_784540_enh_85" depart="3123.22" from="130046557#0" to="-46753244" via="-158466193#0" type="truck_truck" color="255,0,0" departLane="best" departSpeed="max" departPos="random" speedFactor="0.97" /><trip id="truck_784540_enh_86" depart="3128.91" from="130046557#0" to="109971505" via="-5031527" type="truck_truck" color="0,0,0" departLane="best" departSpeed="max" departPos="random" speedFactor="0.96" /><trip id="truck_784540_enh_87" depart="3165.34" from="130046557#0" to="109972547#0" via="-158466193#0" type="truck_truck" color="0,0,255" departLane="best" departSpeed="max" departPos="random" speedFactor="0.97" /><trip id="truck_784540_enh_88" depart="3289.58" from="130046557#0" to="-182804112" via="-5031527" type="truck_truck" color="0,128,0" departLane="best" departSpeed="max" departPos="random" speedFactor="0.98" /><trip id="truck_784540_enh_89" depart="3313.03" from="-46753244" to="109971518#0" via="-5031527" type="truck_truck" color="255,255,0" departLane="best" departSpeed="max" departPos="random" speedFactor="0.95" /><trip id="truck_784540_enh_90" depart="3446.34" from="130046557#0" to="182804115#2" via="158466193#0" type="truck_truck" color="255,255,255" departLane="best" departSpeed="max" departPos="random" speedFactor="1.14" /><trip id="truck_784540_enh_91" depart="3479.03" from="130046557#0" to="183543979#0" via="-5031527" type="truck_truck" color="255,255,255" departLane="best" departSpeed="max" departPos="random" speedFactor="0.89" /><trip id="truck_784540_enh_92" depart="3542.34" from="182804115#2" to="109971518#0" via="-5031527" type="truck_truck" color="255,255,255" departLane="best" departSpeed="max" departPos="random" speedFactor="0.88" /></routes>