<?xml version='1.0' encoding='utf-8'?>
<routes xmlns:xsi="http://www.w3.org/2001/XMLSchema-instance" xsi:noNamespaceSchemaLocation="http://sumo.dlr.de/xsd/routes_file.xsd"><vType id="bus_bus" vClass="bus" guiShape="bus" color="255,255,0" maxSpeed="27.78" length="12.0" />
    <trip id="bus_782211_0" depart="3226.54" from="130046557#0" to="158466193#1" departLane="best" type="bus_bus" departSpeed="max" /><trip id="bus_782211_1" depart="1528.36" from="158466193#0" to="109971518#0" departLane="best" type="bus_bus" /><trip id="bus_782211_2" depart="3056.72" from="-158466193#1" to="109971518#0" departLane="best" type="bus_bus" departSpeed="max" /><trip id="bus_782211_3" depart="3396.36" from="130046557#0" to="-1019458712" departLane="best" type="bus_bus" departSpeed="max" /><trip id="bus_782211_4" depart="679.27" from="-158466193#1" to="109971518#0" departLane="best" type="bus_bus" departSpeed="max" /><trip id="bus_782211_5" depart="1358.54" from="-5031527" to="109971518#0" departLane="best" type="bus_bus" /><trip id="bus_782211_6" depart="3566.18" from="130046557#0" to="158466193#1" departLane="best" type="bus_bus" departSpeed="max" /><trip id="bus_782211_7" depart="849.09" from="158466193#0" to="109971518#0" departLane="best" type="bus_bus" /><trip id="bus_782211_8" depart="2717.09" from="130046557#0" to="158466193#1" departLane="best" type="bus_bus" departSpeed="max" /><trip id="bus_782211_9" depart="509.45" from="130046557#0" to="-158466193#0" departLane="best" type="bus_bus" departSpeed="max" /><trip id="bus_782211_10" depart="2207.63" from="1019458712" to="109971518#0" departLane="best" type="bus_bus" departSpeed="max" /><trip id="bus_782211_11" depart="2547.27" from="-158466193#0" to="109971518#0" departLane="best" type="bus_bus" /><trip id="bus_782211_12" depart="169.82" from="130046557#0" to="-1019458712" departLane="best" type="bus_bus" departSpeed="max" /><trip id="bus_782211_13" depart="1018.91" from="-158466193#1" to="109971518#0" departLane="best" type="bus_bus" departSpeed="max" /><trip id="bus_782211_14" depart="339.64" from="-158466193#1" to="109971518#0" departLane="best" type="bus_bus" departSpeed="max" /><trip id="bus_782211_15" depart="1698.18" from="-5031527" to="109971518#0" departLane="best" type="bus_bus" /><trip id="bus_782211_16" depart="1868.00" from="130046557#0" to="-1019458712" departLane="best" type="bus_bus" departSpeed="max" /><trip id="bus_782211_enh_17" depart="0.00" from="282194769#0" to="158466193#1" type="bus_bus" color="0,128,0" departLane="best" departSpeed="max" departPos="random" speedFactor="0.94" /><trip id="bus_782211_enh_18" depart="0.00" from="-158466193#0" to="-46753244" type="bus_bus" color="255,255,0" departLane="best" departSpeed="max" departPos="random" speedFactor="1.01" /><trip id="bus_782211_enh_19" depart="0.00" from="182804118#0" to="109971518#0" type="bus_bus" color="255,165,0" departLane="best" departSpeed="max" departPos="random" speedFactor="1.04" /><trip id="bus_782211_enh_20" depart="1.37" from="-5031527" to="-46753244" type="bus_bus" color="255,0,0" departLane="best" departSpeed="max" departPos="random" speedFactor="1.09" /><trip id="bus_782211_enh_21" depart="182.46" from="282194769#0" to="-1019458712" type="bus_bus" color="0,128,0" departLane="best" departSpeed="max" departPos="random" speedFactor="1.03" /><trip id="bus_782211_enh_22" depart="220.76" from="130046557#0" to="-820090516#2" type="bus_bus" color="255,255,0" departLane="best" departSpeed="max" departPos="random" speedFactor="1.0" /><trip id="bus_782211_enh_23" depart="257.89" from="282194769#0" to="183543979#0" type="bus_bus" color="255,0,0" departLane="best" departSpeed="max" departPos="random" speedFactor="1.07" /><trip id="bus_782211_enh_24" depart="345.84" from="-183543979#1" to="158466193#0" type="bus_bus" color="255,165,0" departLane="best" departSpeed="max" departPos="random" speedFactor="0.91" /><trip id="bus_782211_enh_25" depart="445.94" from="1019458712" to="183543979#0" type="bus_bus" color="255,0,0" departLane="best" departSpeed="max" departPos="random" speedFactor="0.93" /><trip id="bus_782211_enh_26" depart="475.02" from="158466193#0" to="183543979#0" type="bus_bus" color="255,0,0" departLane="best" departSpeed="max" departPos="random" speedFactor="1.15" /><trip id="bus_782211_enh_27" depart="511.77" from="-158466193#1" to="109972547#0" type="bus_bus" color="0,128,0" departLane="best" departSpeed="max" departPos="random" speedFactor="0.92" /><trip id="bus_782211_enh_28" depart="522.80" from="158466193#0" to="-282194769#4" type="bus_bus" color="0,0,255" departLane="best" departSpeed="max" departPos="random" speedFactor="0.99" /><trip id="bus_782211_enh_29" depart="699.40" from="282194769#0" to="109972547#2" type="bus_bus" color="255,0,0" departLane="best" departSpeed="max" departPos="random" speedFactor="0.96" /><trip id="bus_782211_enh_30" depart="708.88" from="109972547#0" to="109972547#2" type="bus_bus" color="255,255,0" departLane="best" departSpeed="max" departPos="random" speedFactor="1.05" /><trip id="bus_782211_enh_31" depart="778.87" from="1019458712" to="-46753244" type="bus_bus" color="128,128,128" departLane="best" departSpeed="max" departPos="random" speedFactor="0.93" /><trip id="bus_782211_enh_32" depart="882.87" from="-183543979#1" to="158466193#0" type="bus_bus" color="255,255,0" departLane="best" departSpeed="max" departPos="random" speedFactor="1.02" /><trip id="bus_782211_enh_33" depart="887.38" from="130046557#0" to="182804115#2" type="bus_bus" color="255,255,0" departLane="best" departSpeed="max" departPos="random" speedFactor="0.9" /><trip id="bus_782211_enh_34" depart="935.51" from="109972547#0" to="109971518#0" type="bus_bus" color="255,165,0" departLane="best" departSpeed="max" departPos="random" speedFactor="1.15" /><trip id="bus_782211_enh_35" depart="1049.34" from="-158466193#0" to="109971505" type="bus_bus" color="255,255,255" departLane="best" departSpeed="max" departPos="random" speedFactor="0.99" /><trip id="bus_782211_enh_36" depart="1057.62" from="182804118#0" to="109971518#0" type="bus_bus" color="255,165,0" departLane="best" departSpeed="max" departPos="random" speedFactor="0.86" /><trip id="bus_782211_enh_37" depart="1190.40" from="-183532951#1" to="158466193#0" type="bus_bus" color="0,0,255" departLane="best" departSpeed="max" departPos="random" speedFactor="1.1" /><trip id="bus_782211_enh_38" depart="1212.65" from="282194769#0" to="158466193#1" type="bus_bus" color="128,128,128" departLane="best" departSpeed="max" departPos="random" speedFactor="1.14" /><trip id="bus_782211_enh_39" depart="1322.88" from="-183532951#1" to="158466193#1" type="bus_bus" color="255,165,0" departLane="best" departSpeed="max" departPos="random" speedFactor="0.92" /><trip id="bus_782211_enh_40" depart="1324.56" from="282194769#0" to="158466193#1" type="bus_bus" color="255,255,0" departLane="best" departSpeed="max" departPos="random" speedFactor="0.96" /><trip id="bus_782211_enh_41" depart="1376.41" from="-158466193#1" to="109971518#0" type="bus_bus" color="128,128,128" departLane="best" departSpeed="max" departPos="random" speedFactor="0.89" /><trip id="bus_782211_enh_42" depart="1401.90" from="-46753244" to="109971518#0" type="bus_bus" color="0,128,0" departLane="best" departSpeed="max" departPos="random" speedFactor="0.88" /><trip id="bus_782211_enh_43" depart="1574.33" from="-158466193#1" to="820090516#0" type="bus_bus" color="128,128,128" departLane="best" departSpeed="max" departPos="random" speedFactor="0.87" /><trip id="bus_782211_enh_44" depart="1575.74" from="130046557#0" to="-282194769#4" type="bus_bus" color="255,255,0" departLane="best" departSpeed="max" departPos="random" speedFactor="1.09" /><trip id="bus_782211_enh_45" depart="1652.75" from="-158466193#1" to="-46753244" type="bus_bus" color="0,0,255" departLane="best" departSpeed="max" departPos="random" speedFactor="0.99" /><trip id="bus_782211_enh_46" depart="1750.26" from="130046557#0" to="-183543979#1" type="bus_bus" color="0,128,0" departLane="best" departSpeed="max" departPos="random" speedFactor="0.86" /><trip id="bus_782211_enh_47" depart="1791.77" from="282194769#0" to="109971505" type="bus_bus" color="0,0,255" departLane="best" departSpeed="max" departPos="random" speedFactor="0.91" /><trip id="bus_782211_enh_48" depart="1856.49" from="130046557#0" to="109971505" type="bus_bus" color="128,128,128" departLane="best" departSpeed="max" departPos="random" speedFactor="1.02" /><trip id="bus_782211_enh_49" depart="1890.06" from="282194769#0" to="109971518#0" type="bus_bus" color="255,255,0" departLane="best" departSpeed="max" departPos="random" speedFactor="1.12" /><trip id="bus_782211_enh_50" depart="1919.42" from="-182804115#1" to="109971518#0" type="bus_bus" color="128,128,128" departLane="best" departSpeed="max" departPos="random" speedFactor="1.11" /><trip id="bus_782211_enh_51" depart="2093.29" from="130046557#0" to="109971505" type="bus_bus" color="255,0,0" departLane="best" departSpeed="max" departPos="random" speedFactor="1.09" /><trip id="bus_782211_enh_52" depart="2100.52" from="158466193#0" to="109971518#0" type="bus_bus" color="255,165,0" departLane="best" departSpeed="max" departPos="random" speedFactor="1.03" /><trip id="bus_782211_enh_53" depart="2131.48" from="130046557#0" to="158466193#1" type="bus_bus" color="255,255,255" departLane="best" departSpeed="max" departPos="random" speedFactor="1.09" /><trip id="bus_782211_enh_54" depart="2222.24" from="130046557#0" to="-1019458712" type="bus_bus" color="0,0,255" departLane="best" departSpeed="max" departPos="random" speedFactor="1.12" /><trip id="bus_782211_enh_55" depart="2271.18" from="-183532951#1" to="158466193#1" type="bus_bus" color="255,165,0" departLane="best" departSpeed="max" departPos="random" speedFactor="1.14" /><trip id="bus_782211_enh_56" depart="2365.61" from="-158466193#1" to="109971518#0" type="bus_bus" color="0,128,0" departLane="best" departSpeed="max" departPos="random" speedFactor="0.96" /><trip id="bus_782211_enh_57" depart="2365.67" from="130046557#0" to="158466193#0" type="bus_bus" color="255,255,0" departLane="best" departSpeed="max" departPos="random" speedFactor="1.06" /><trip id="bus_782211_enh_58" depart="2446.18" from="130046557#0" to="-158466193#0" type="bus_bus" color="128,128,128" departLane="best" departSpeed="max" departPos="random" speedFactor="1.09" /><trip id="bus_782211_enh_59" depart="2606.41" from="1019458712" to="109971518#0" type="bus_bus" color="255,165,0" departLane="best" departSpeed="max" departPos="random" speedFactor="1.1" /><trip id="bus_782211_enh_60" depart="2611.87" from="130046557#0" to="-1019458712" type="bus_bus" color="255,255,0" departLane="best" departSpeed="max" departPos="random" speedFactor="0.96" /><trip id="bus_782211_enh_61" depart="2651.00" from="130046557#0" to="-158466193#0" type="bus_bus" color="0,0,255" departLane="best" departSpeed="max" departPos="random" speedFactor="1.05" /><trip id="bus_782211_enh_62" depart="2767.64" from="1019458712" to="109971518#0" type="bus_bus" color="255,255,0" departLane="best" departSpeed="max" departPos="random" speedFactor="0.97" /><trip id="bus_782211_enh_63" depart="2822.60" from="130046557#0" to="109972547#2" type="bus_bus" color="0,128,0" departLane="best" departSpeed="max" departPos="random" speedFactor="1.05" /><trip id="bus_782211_enh_64" depart="2900.05" from="-158466193#1" to="109971518#0" type="bus_bus" color="255,165,0" departLane="best" departSpeed="max" departPos="random" speedFactor="1.03" /><trip id="bus_782211_enh_65" depart="2952.24" from="-158466193#1" to="109971505" type="bus_bus" color="255,0,0" departLane="best" departSpeed="max" departPos="random" speedFactor="0.99" /><trip id="bus_782211_enh_66" depart="3049.32" from="158466193#0" to="109971518#0" type="bus_bus" color="255,165,0" departLane="best" departSpeed="max" departPos="random" speedFactor="1.02" /><trip id="bus_782211_enh_67" depart="3106.29" from="130046557#0" to="-1019458712" type="bus_bus" color="255,255,0" departLane="best" departSpeed="max" departPos="random" speedFactor="0.97" /><trip id="bus_782211_enh_68" depart="3128.91" from="-158466193#1" to="109971518#0" type="bus_bus" color="255,0,0" departLane="best" departSpeed="max" departPos="random" speedFactor="0.97" /><trip id="bus_782211_enh_69" depart="3165.34" from="-158466193#1" to="109971518#0" type="bus_bus" color="255,255,255" departLane="best" departSpeed="max" departPos="random" speedFactor="0.96" /><trip id="bus_782211_enh_70" depart="3289.58" from="130046557#0" to="158466193#1" type="bus_bus" color="0,128,0" departLane="best" departSpeed="max" departPos="random" speedFactor="0.97" /><trip id="bus_782211_enh_71" depart="3313.03" from="130046557#0" to="158466193#1" type="bus_bus" color="255,165,0" departLane="best" departSpeed="max" departPos="random" speedFactor="0.98" /><trip id="bus_782211_enh_72" depart="3446.34" from="-158466193#1" to="109971518#0" type="bus_bus" color="128,128,128" departLane="best" departSpeed="max" departPos="random" speedFactor="0.95" /><trip id="bus_782211_enh_73" depart="3479.03" from="-158466193#1" to="109971518#0" type="bus_bus" color="255,255,0" departLane="best" departSpeed="max" departPos="random" speedFactor="1.14" /><trip id="bus_782211_enh_74" depart="3542.34" from="130046557#0" to="158466193#1" type="bus_bus" color="255,255,0" departLane="best" departSpeed="max" departPos="random" speedFactor="0.89" /><trip id="bus_782211_enh_75" depart="3568.35" from="-158466193#1" to="109971518#0" type="bus_bus" color="255,255,0" departLane="best" departSpeed="max" departPos="random" speedFactor="0.88" /></routes>