<?xml version="1.0" encoding="UTF-8"?>

<!-- generated on 2025-09-03 00:53:43 by Eclipse SUMO netconvert Version 1.24.0
<netconvertConfiguration xmlns:xsi="http://www.w3.org/2001/XMLSchema-instance" xsi:noNamespaceSchemaLocation="http://sumo.dlr.de/xsd/netconvertConfiguration.xsd">

    <input>
        <type-files value="${SUMO_HOME}\data\typemap\osmNetconvert.typ.xml,${SUMO_HOME}\data\typemap\osmNetconvertUrbanDe.typ.xml,${SUMO_HOME}\data\typemap\osmNetconvertPedestrians.typ.xml,${SUMO_HOME}\data\typemap\osmNetconvertBicycle.typ.xml"/>
        <osm-files value="osm_bbox.osm.xml.gz"/>
    </input>

    <output>
        <output-file value="osm.net.xml.gz"/>
        <output.street-names value="true"/>
        <output.original-names value="true"/>
    </output>

    <projection>
        <proj.utm value="true"/>
    </projection>

    <processing>
        <geometry.remove value="true"/>
        <roundabouts.guess value="true"/>
    </processing>

    <tls_building>
        <tls.discard-simple value="true"/>
        <tls.join value="true"/>
        <tls.guess-signals value="true"/>
        <tls.default-type value="actuated"/>
    </tls_building>

    <ramp_guessing>
        <ramps.guess value="true"/>
    </ramp_guessing>

    <edge_removal>
        <keep-edges.by-vclass value="passenger"/>
    </edge_removal>

    <junctions>
        <junctions.join value="true"/>
        <junctions.corner-detail value="5"/>
    </junctions>

    <pedestrian>
        <crossings.guess value="true"/>
    </pedestrian>

    <formats>
        <osm.bike-access value="true"/>
        <osm.sidewalks value="true"/>
    </formats>

</netconvertConfiguration>
-->

<net version="1.20" junctionCornerDetail="5" walkingareas="true" limitTurnSpeed="5.50" xmlns:xsi="http://www.w3.org/2001/XMLSchema-instance" xsi:noNamespaceSchemaLocation="http://sumo.dlr.de/xsd/net_file.xsd">

    <location netOffset="-281325.30,-1592074.88" convBoundary="0.00,0.00,1183.56,1449.89" origBoundary="120.971908,14.392353,120.982866,14.405442" projParameter="+proj=utm +zone=51 +ellps=WGS84 +datum=WGS84 +units=m +no_defs"/>

    <type id="highway.primary" priority="12" numLanes="2" speed="13.89" disallow="pedestrian tram rail_urban rail rail_electric rail_fast ship container cable_car subway aircraft wheelchair scooter drone" oneway="0" sidewalkWidth="3.00"/>
    <type id="highway.secondary" priority="11" numLanes="1" speed="13.89" disallow="pedestrian tram rail_urban rail rail_electric rail_fast ship container cable_car subway aircraft wheelchair scooter drone" oneway="0" sidewalkWidth="3.00"/>
    <type id="highway.tertiary" priority="10" numLanes="1" speed="13.89" disallow="pedestrian tram rail_urban rail rail_electric rail_fast ship container cable_car subway aircraft wheelchair scooter drone" oneway="0" sidewalkWidth="3.00"/>
    <type id="highway.tertiary_link" priority="5" numLanes="1" speed="13.89" disallow="pedestrian tram rail_urban rail rail_electric rail_fast ship container cable_car subway aircraft wheelchair scooter drone" oneway="0" sidewalkWidth="2.00"/>

    <edge id=":10693470951_0" function="internal">
        <lane id=":10693470951_0_0" index="0" disallow="pedestrian tram rail_urban rail rail_electric rail_fast ship container cable_car subway aircraft wheelchair scooter drone" speed="11.11" length="9.55" shape="821.84,862.60 824.51,862.45 826.23,861.48 827.95,860.28 830.62,859.45"/>
    </edge>
    <edge id=":1257552857_0" function="internal">
        <lane id=":1257552857_0_0" index="0" disallow="pedestrian tram rail_urban rail rail_electric rail_fast ship container cable_car subway aircraft wheelchair scooter drone" speed="3.65" length="4.67" shape="-0.06,483.96 -1.23,483.11 -1.60,482.30 -1.17,481.51 0.06,480.76"/>
    </edge>
    <edge id=":289688369_0" function="internal">
        <lane id=":289688369_0_0" index="0" disallow="pedestrian tram rail_urban rail rail_electric rail_fast ship container cable_car subway aircraft wheelchair scooter drone" speed="16.67" length="15.51" shape="641.76,644.18 641.93,648.83 641.94,652.02 641.79,655.20 641.46,659.85"/>
        <lane id=":289688369_0_1" index="1" disallow="pedestrian tram rail_urban rail rail_electric rail_fast ship container cable_car subway aircraft wheelchair scooter drone" speed="16.67" length="15.51" shape="638.56,644.31 638.73,648.85 638.74,651.97 638.59,655.08 638.27,659.61"/>
    </edge>
    <edge id=":289688369_2" function="internal">
        <lane id=":289688369_2_0" index="0" disallow="pedestrian tram rail_urban rail rail_electric rail_fast ship container cable_car subway aircraft wheelchair scooter drone" speed="8.79" length="3.68" shape="638.56,644.31 637.98,647.94"/>
    </edge>
    <edge id=":289688369_3" function="internal">
        <lane id=":289688369_3_0" index="0" disallow="pedestrian tram rail_urban rail rail_electric rail_fast ship container cable_car subway aircraft wheelchair scooter drone" speed="3.65" length="1.44" shape="638.56,644.31 637.81,645.54"/>
    </edge>
    <edge id=":289688369_11" function="internal">
        <lane id=":289688369_11_0" index="0" disallow="pedestrian tram rail_urban rail rail_electric rail_fast ship container cable_car subway aircraft wheelchair scooter drone" speed="8.79" length="13.53" shape="637.98,647.94 637.94,648.16 635.73,651.00 631.91,652.83 626.50,653.65"/>
    </edge>
    <edge id=":289688369_12" function="internal">
        <lane id=":289688369_12_0" index="0" disallow="pedestrian tram rail_urban rail rail_electric rail_fast ship container cable_car subway aircraft wheelchair scooter drone" speed="3.65" length="3.23" shape="637.81,645.54 637.03,645.97 636.22,645.60 635.37,644.44"/>
    </edge>
    <edge id=":289688369_4" function="internal">
        <lane id=":289688369_4_0" index="0" disallow="pedestrian tram rail_urban rail rail_electric rail_fast ship container cable_car subway aircraft wheelchair scooter drone" speed="6.65" length="9.42" shape="626.34,650.45 628.98,649.97 630.83,648.83 631.89,647.03 632.17,644.57"/>
    </edge>
    <edge id=":289688369_5" function="internal">
        <lane id=":289688369_5_0" index="0" disallow="pedestrian tram rail_urban rail rail_electric rail_fast ship container cable_car subway aircraft wheelchair scooter drone" speed="8.48" length="17.56" shape="626.34,650.45 631.83,650.78 635.64,652.42 637.79,655.37 638.27,659.61"/>
    </edge>
    <edge id=":289688369_6" function="internal">
        <lane id=":289688369_6_0" index="0" disallow="pedestrian tram rail_urban rail rail_electric rail_fast ship container cable_car subway aircraft wheelchair scooter drone" speed="3.65" length="1.44" shape="626.34,650.45 627.58,651.19"/>
    </edge>
    <edge id=":289688369_13" function="internal">
        <lane id=":289688369_13_0" index="0" disallow="pedestrian tram rail_urban rail rail_electric rail_fast ship container cable_car subway aircraft wheelchair scooter drone" speed="3.65" length="3.23" shape="627.58,651.19 628.02,651.97 627.66,652.79 626.50,653.65"/>
    </edge>
    <edge id=":289688369_7" function="internal">
        <lane id=":289688369_7_0" index="0" disallow="pedestrian tram rail_urban rail rail_electric rail_fast ship container cable_car subway aircraft wheelchair scooter drone" speed="6.26" length="9.05" shape="631.88,659.15 631.71,656.63 630.75,654.88 629.02,653.88 626.50,653.65"/>
    </edge>
    <edge id=":289688369_8" function="internal">
        <lane id=":289688369_8_0" index="0" disallow="pedestrian tram rail_urban rail rail_electric rail_fast ship container cable_car subway aircraft wheelchair scooter drone" speed="16.67" length="14.78" shape="631.88,659.15 632.19,654.83 632.34,651.86 632.32,648.90 632.17,644.57"/>
        <lane id=":289688369_8_1" index="1" disallow="pedestrian tram rail_urban rail rail_electric rail_fast ship container cable_car subway aircraft wheelchair scooter drone" speed="16.67" length="14.78" shape="635.07,659.38 635.39,654.95 635.54,651.91 635.53,648.87 635.37,644.44"/>
    </edge>
    <edge id=":289688369_10" function="internal">
        <lane id=":289688369_10_0" index="0" disallow="pedestrian tram rail_urban rail rail_electric rail_fast ship container cable_car subway aircraft wheelchair scooter drone" speed="3.65" length="1.44" shape="635.07,659.38 635.96,658.24"/>
    </edge>
    <edge id=":289688369_14" function="internal">
        <lane id=":289688369_14_0" index="0" disallow="pedestrian tram rail_urban rail rail_electric rail_fast ship container cable_car subway aircraft wheelchair scooter drone" speed="3.65" length="3.23" shape="635.96,658.24 636.79,657.90 637.56,658.36 638.27,659.61"/>
    </edge>
    <edge id=":325280455_0" function="internal">
        <lane id=":325280455_0_0" index="0" disallow="pedestrian tram rail_urban rail rail_electric rail_fast ship container cable_car subway aircraft wheelchair scooter drone" speed="3.65" length="4.67" shape="600.95,1449.14 600.82,1450.57 600.30,1451.30 599.41,1451.33 598.13,1450.65"/>
    </edge>
    <edge id=":5208885902_0" function="internal">
        <lane id=":5208885902_0_0" index="0" disallow="pedestrian tram rail_urban rail rail_electric rail_fast ship container cable_car subway aircraft wheelchair scooter drone" speed="3.65" length="4.67" shape="754.64,1.07 754.44,-0.36 754.77,-1.19 755.63,-1.43 757.03,-1.07"/>
    </edge>
    <edge id=":5214311462_0" function="internal">
        <lane id=":5214311462_0_0" index="0" disallow="pedestrian tram rail_urban rail rail_electric rail_fast ship container cable_car subway aircraft wheelchair scooter drone" speed="11.11" length="8.90" shape="831.74,863.45 829.29,863.80 827.63,864.13 826.00,864.63 823.68,865.50"/>
        <lane id=":5214311462_0_1" index="1" disallow="pedestrian tram rail_urban rail rail_electric rail_fast ship container cable_car subway aircraft wheelchair scooter drone" speed="11.11" length="8.90" shape="831.74,863.45 828.98,863.33 827.05,862.59 825.16,862.05 822.55,862.50"/>
    </edge>
    <edge id=":5214311469_0" function="internal">
        <lane id=":5214311469_0_0" index="0" disallow="pedestrian tram rail_urban rail rail_electric rail_fast ship container cable_car subway aircraft wheelchair scooter drone" speed="8.33" length="9.10" shape="633.35,860.93 635.99,861.18 637.80,861.31 639.62,861.35 642.28,861.36"/>
        <lane id=":5214311469_0_1" index="1" disallow="pedestrian tram rail_urban rail rail_electric rail_fast ship container cable_car subway aircraft wheelchair scooter drone" speed="8.33" length="9.10" shape="633.03,864.11 635.77,864.37 637.64,864.50 639.52,864.55 642.27,864.56"/>
    </edge>
    <edge id=":5214311469_2" function="internal">
        <lane id=":5214311469_2_0" index="0" disallow="pedestrian tram rail_urban rail rail_electric rail_fast ship container cable_car subway aircraft wheelchair scooter drone" speed="5.74" length="6.29" shape="633.03,864.11 634.41,864.12 636.48,864.10 638.35,864.25 639.17,864.76"/>
        <lane id=":5214311469_2_1" index="1" disallow="pedestrian tram rail_urban rail rail_electric rail_fast ship container cable_car subway aircraft wheelchair scooter drone" speed="4.36" length="3.24" shape="633.03,864.11 633.91,864.11 634.88,864.09 635.65,864.24 635.97,864.75"/>
    </edge>
    <edge id=":5216262500_0" function="internal">
        <lane id=":5216262500_0_0" index="0" disallow="pedestrian tram rail_urban rail rail_electric rail_fast ship container cable_car subway aircraft wheelchair scooter drone" speed="3.65" length="4.67" shape="623.44,306.35 624.21,305.13 625.00,304.70 625.81,305.08 626.64,306.26"/>
    </edge>
    <edge id=":8675596622_0" function="internal">
        <lane id=":8675596622_0_0" index="0" disallow="pedestrian tram rail_urban rail rail_electric rail_fast ship container cable_car subway aircraft wheelchair scooter drone" speed="8.33" length="14.34" shape="644.79,870.79 630.44,870.92"/>
        <lane id=":8675596622_0_1" index="1" disallow="pedestrian tram rail_urban rail rail_electric rail_fast ship container cable_car subway aircraft wheelchair scooter drone" speed="8.33" length="14.34" shape="644.75,867.59 630.42,867.72"/>
    </edge>
    <edge id=":8675596622_2" function="internal">
        <lane id=":8675596622_2_0" index="0" disallow="pedestrian tram rail_urban rail rail_electric rail_fast ship container cable_car subway aircraft wheelchair scooter drone" speed="7.40" length="11.91" shape="639.17,864.96 638.62,867.55 636.98,869.40 634.25,870.52 630.44,870.92"/>
        <lane id=":8675596622_2_1" index="1" disallow="pedestrian tram rail_urban rail rail_electric rail_fast ship container cable_car subway aircraft wheelchair scooter drone" speed="5.78" length="6.85" shape="635.97,864.95 635.62,866.15 634.58,867.01 632.84,867.53 630.42,867.72"/>
    </edge>
    <edge id=":9402647536_0" function="internal">
        <lane id=":9402647536_0_0" index="0" disallow="pedestrian tram rail_urban rail rail_electric rail_fast ship container cable_car subway aircraft wheelchair scooter drone" speed="7.92" length="10.33" shape="847.96,860.04 845.74,861.20 844.15,862.94 843.19,865.28 842.85,868.20"/>
    </edge>
    <edge id=":9402647536_1" function="internal">
        <lane id=":9402647536_1_0" index="0" disallow="pedestrian tram rail_urban rail rail_electric rail_fast ship container cable_car subway aircraft wheelchair scooter drone" speed="13.89" length="14.54" shape="847.96,860.04 844.45,861.11 840.96,861.96 837.43,862.62 833.79,863.17"/>
    </edge>
    <edge id=":9402647536_2" function="internal">
        <lane id=":9402647536_2_0" index="0" disallow="pedestrian tram rail_urban rail rail_electric rail_fast ship container cable_car subway aircraft wheelchair scooter drone" speed="6.24" length="9.11" shape="839.65,868.18 839.30,865.69 838.20,864.02 836.37,863.18 833.79,863.17"/>
    </edge>
    <edge id=":9402647536_3" function="internal">
        <lane id=":9402647536_3_0" index="0" disallow="pedestrian tram rail_urban rail rail_electric rail_fast ship container cable_car subway aircraft wheelchair scooter drone" speed="3.65" length="1.44" shape="839.65,868.18 840.46,866.99"/>
    </edge>
    <edge id=":9402647536_4" function="internal">
        <lane id=":9402647536_4_0" index="0" disallow="pedestrian tram rail_urban rail rail_electric rail_fast ship container cable_car subway aircraft wheelchair scooter drone" speed="3.65" length="3.23" shape="840.46,866.99 841.26,866.59 842.06,867.00 842.85,868.20"/>
    </edge>
    <edge id=":9402647552_0" function="internal">
        <lane id=":9402647552_0_0" index="0" disallow="pedestrian tram rail_urban rail rail_electric rail_fast ship container cable_car subway aircraft wheelchair scooter drone" speed="3.65" length="4.67" shape="921.08,1314.22 921.51,1315.60 921.32,1316.47 920.50,1316.84 919.07,1316.71"/>
    </edge>
    <edge id=":cluster_10703690873_1706575290_0" function="internal">
        <lane id=":cluster_10703690873_1706575290_0_0" index="0" disallow="pedestrian tram rail_urban rail rail_electric rail_fast ship container cable_car subway aircraft wheelchair scooter drone" speed="8.33" length="11.05" shape="819.86,866.95 816.55,867.88 814.16,867.96 811.72,867.80 808.23,868.01"/>
        <lane id=":cluster_10703690873_1706575290_0_1" index="1" disallow="pedestrian tram rail_urban rail rail_electric rail_fast ship container cable_car subway aircraft wheelchair scooter drone" speed="8.33" length="11.05" shape="818.72,863.96 815.82,864.75 813.72,864.77 811.57,864.58 808.51,864.74"/>
    </edge>
    <edge id=":cluster_10703690873_1706575290_2" function="internal">
        <lane id=":cluster_10703690873_1706575290_2_0" index="0" disallow="pedestrian tram rail_urban rail rail_electric rail_fast ship container cable_car subway aircraft wheelchair scooter drone" speed="6.84" length="12.63" shape="818.72,863.96 816.71,863.99 815.23,862.35 814.26,859.06 813.82,854.10"/>
    </edge>
    <edge id=":cluster_10703690873_1706575290_3" function="internal">
        <lane id=":cluster_10703690873_1706575290_3_0" index="0" disallow="pedestrian tram rail_urban rail rail_electric rail_fast ship container cable_car subway aircraft wheelchair scooter drone" speed="3.39" length="3.07" shape="818.72,863.96 821.44,862.54"/>
    </edge>
    <edge id=":cluster_10703690873_1706575290_4" function="internal">
        <lane id=":cluster_10703690873_1706575290_4_0" index="0" disallow="pedestrian tram rail_urban rail rail_electric rail_fast ship container cable_car subway aircraft wheelchair scooter drone" speed="6.54" length="7.99" shape="817.02,854.00 817.38,856.11 818.31,857.71 819.80,858.80 821.87,859.37"/>
    </edge>
    <edge id=":cluster_10703690873_1706575290_5" function="internal">
        <lane id=":cluster_10703690873_1706575290_5_0" index="0" disallow="pedestrian tram rail_urban rail rail_electric rail_fast ship container cable_car subway aircraft wheelchair scooter drone" speed="8.62" length="15.29" shape="817.02,854.00 816.60,858.24 815.04,861.45 812.34,863.62 808.51,864.74"/>
    </edge>
    <edge id=":cluster_10703690873_1706575290_6" function="internal">
        <lane id=":cluster_10703690873_1706575290_6_0" index="0" disallow="pedestrian tram rail_urban rail rail_electric rail_fast ship container cable_car subway aircraft wheelchair scooter drone" speed="3.65" length="4.67" shape="817.02,854.00 816.26,855.22 815.47,855.65 814.66,855.27 813.82,854.10"/>
    </edge>
    <edge id=":cluster_10703690873_1706575290_7" function="internal">
        <lane id=":cluster_10703690873_1706575290_7_0" index="0" disallow="pedestrian tram rail_urban rail rail_electric rail_fast ship container cable_car subway aircraft wheelchair scooter drone" speed="6.48" length="8.76" shape="808.91,860.07 811.12,859.59 812.68,858.43 813.58,856.60 813.82,854.10"/>
    </edge>
    <edge id=":cluster_10703690873_1706575290_8" function="internal">
        <lane id=":cluster_10703690873_1706575290_8_0" index="0" disallow="pedestrian tram rail_urban rail rail_electric rail_fast ship container cable_car subway aircraft wheelchair scooter drone" speed="8.33" length="12.96" shape="808.91,860.07 812.76,859.68 815.41,859.26 818.04,859.06 821.87,859.37"/>
        <lane id=":cluster_10703690873_1706575290_8_1" index="1" disallow="pedestrian tram rail_urban rail rail_electric rail_fast ship container cable_car subway aircraft wheelchair scooter drone" speed="8.33" length="12.96" shape="808.63,863.29 812.44,862.90 815.05,862.46 817.66,862.25 821.44,862.54"/>
    </edge>
    <edge id=":cluster_10703690873_1706575290_10" function="internal">
        <lane id=":cluster_10703690873_1706575290_10_0" index="0" disallow="pedestrian tram rail_urban rail rail_electric rail_fast ship container cable_car subway aircraft wheelchair scooter drone" speed="2.93" length="2.13" shape="808.63,863.29 809.15,863.70 809.30,864.08 809.08,864.42 808.51,864.74"/>
    </edge>
    <edge id=":cluster_5214311476_8654186377_0" function="internal">
        <lane id=":cluster_5214311476_8654186377_0_0" index="0" disallow="pedestrian tram rail_urban rail rail_electric rail_fast ship container cable_car subway aircraft wheelchair scooter drone" speed="7.37" length="10.36" shape="609.38,870.63 606.28,870.84 603.92,871.73 602.28,873.32 601.37,875.59"/>
    </edge>
    <edge id=":cluster_5214311476_8654186377_1" function="internal">
        <lane id=":cluster_5214311476_8654186377_1_0" index="0" disallow="pedestrian tram rail_urban rail rail_electric rail_fast ship container cable_car subway aircraft wheelchair scooter drone" speed="9.33" length="21.97" shape="609.76,867.44 604.32,866.27 600.86,863.25 599.38,858.39 599.88,851.68"/>
    </edge>
    <edge id=":cluster_5214311476_8654186377_2" function="internal">
        <lane id=":cluster_5214311476_8654186377_2_0" index="0" disallow="pedestrian tram rail_urban rail rail_electric rail_fast ship container cable_car subway aircraft wheelchair scooter drone" speed="4.40" length="7.77" shape="609.76,867.44 607.94,865.88 607.43,864.48 608.25,863.24 610.39,862.15"/>
    </edge>
    <edge id=":cluster_5214311476_8654186377_3" function="internal">
        <lane id=":cluster_5214311476_8654186377_3_0" index="0" disallow="pedestrian tram rail_urban rail rail_electric rail_fast ship container cable_car subway aircraft wheelchair scooter drone" speed="6.22" length="8.98" shape="606.16,852.90 606.03,855.42 606.76,857.27 608.34,858.46 610.77,858.97"/>
    </edge>
    <edge id=":cluster_5214311476_8654186377_4" function="internal">
        <lane id=":cluster_5214311476_8654186377_4_0" index="0" disallow="pedestrian tram rail_urban rail rail_electric rail_fast ship container cable_car subway aircraft wheelchair scooter drone" speed="16.67" length="23.18" shape="606.16,852.90 601.37,875.59"/>
        <lane id=":cluster_5214311476_8654186377_4_1" index="1" disallow="pedestrian tram rail_urban rail rail_electric rail_fast ship container cable_car subway aircraft wheelchair scooter drone" speed="16.67" length="23.18" shape="603.02,852.29 598.24,874.94"/>
    </edge>
    <edge id=":cluster_5214311476_8654186377_6" function="internal">
        <lane id=":cluster_5214311476_8654186377_6_0" index="0" disallow="pedestrian tram rail_urban rail rail_electric rail_fast ship container cable_car subway aircraft wheelchair scooter drone" speed="3.65" length="1.44" shape="603.02,852.29 602.00,853.31"/>
    </edge>
    <edge id=":cluster_5214311476_8654186377_11" function="internal">
        <lane id=":cluster_5214311476_8654186377_11_0" index="0" disallow="pedestrian tram rail_urban rail rail_electric rail_fast ship container cable_car subway aircraft wheelchair scooter drone" speed="3.65" length="3.23" shape="602.00,853.31 601.14,853.55 600.43,853.01 599.88,851.68"/>
    </edge>
    <edge id=":cluster_5214311476_8654186377_7" function="internal">
        <lane id=":cluster_5214311476_8654186377_7_0" index="0" disallow="pedestrian tram rail_urban rail rail_electric rail_fast ship container cable_car subway aircraft wheelchair scooter drone" speed="16.67" length="23.10" shape="591.97,873.65 596.74,851.07"/>
        <lane id=":cluster_5214311476_8654186377_7_1" index="1" disallow="pedestrian tram rail_urban rail rail_electric rail_fast ship container cable_car subway aircraft wheelchair scooter drone" speed="16.67" length="23.10" shape="595.11,874.29 599.88,851.68"/>
    </edge>
    <edge id=":cluster_5214311476_8654186377_9" function="internal">
        <lane id=":cluster_5214311476_8654186377_9_0" index="0" disallow="pedestrian tram rail_urban rail rail_electric rail_fast ship container cable_car subway aircraft wheelchair scooter drone" speed="10.31" length="5.53" shape="595.11,874.29 596.93,869.08"/>
    </edge>
    <edge id=":cluster_5214311476_8654186377_10" function="internal">
        <lane id=":cluster_5214311476_8654186377_10_0" index="0" disallow="pedestrian tram rail_urban rail rail_electric rail_fast ship container cable_car subway aircraft wheelchair scooter drone" speed="3.65" length="1.44" shape="595.11,874.29 596.13,873.28"/>
    </edge>
    <edge id=":cluster_5214311476_8654186377_12" function="internal">
        <lane id=":cluster_5214311476_8654186377_12_0" index="0" disallow="pedestrian tram rail_urban rail rail_electric rail_fast ship container cable_car subway aircraft wheelchair scooter drone" speed="10.31" length="16.10" shape="596.93,869.08 597.07,868.68 600.27,864.79 604.71,862.61 610.39,862.15"/>
    </edge>
    <edge id=":cluster_5214311476_8654186377_13" function="internal">
        <lane id=":cluster_5214311476_8654186377_13_0" index="0" disallow="pedestrian tram rail_urban rail rail_electric rail_fast ship container cable_car subway aircraft wheelchair scooter drone" speed="3.65" length="3.23" shape="596.13,873.28 597.00,873.05 597.70,873.61 598.24,874.94"/>
    </edge>

    <edge id="-1019458707" from="5208885902" to="cluster_10703690873_1706575290" name="Molino River Drive" priority="10" type="highway.tertiary" shape="755.84,0.00 760.48,5.18 773.74,24.73 778.08,44.61 777.58,61.55 773.07,75.98 754.39,111.41 743.05,130.06 734.60,140.41 732.81,147.59 733.53,155.39 741.29,173.71 743.07,191.83 743.60,197.51 740.45,203.99 734.98,207.30 716.93,214.21 711.41,215.09 706.72,217.28 704.29,219.96 703.21,223.47 703.48,232.81 703.88,240.52 704.85,248.03 706.78,267.49 709.60,288.30 712.96,308.22 714.75,315.40 719.21,322.44 724.44,328.14 728.36,332.90 730.26,335.32 731.15,337.74 731.62,342.35 730.82,346.85 729.42,352.30 724.88,358.53 719.06,367.10 709.48,384.96 708.60,393.41 708.32,398.83 708.17,404.62 709.09,421.00 711.08,426.20 713.07,430.13 715.49,433.64 716.17,435.78 716.79,442.25 714.66,453.41 715.14,467.42 715.14,475.48 718.26,496.72 722.17,503.09 733.42,513.47 737.63,517.54 741.77,521.78 746.78,529.18 750.39,534.82 755.01,543.55 759.11,549.85 763.19,553.54 765.76,555.57 767.27,557.10 770.35,560.45 773.05,564.53 774.87,572.56 775.44,580.54 772.82,595.43 769.43,622.85 767.22,634.09 766.72,639.24 764.11,645.23 761.72,656.26 766.82,665.04 782.99,680.46 793.13,690.01 808.81,709.46 811.87,716.35 813.76,723.66 810.36,759.06 809.79,777.04 811.32,794.63 814.64,829.01 815.64,861.11">
        <lane id="-1019458707_0" index="0" disallow="pedestrian tram rail_urban rail rail_electric rail_fast ship container cable_car subway aircraft wheelchair scooter drone" speed="13.89" length="955.89" shape="757.03,-1.07 761.74,4.20 775.24,24.09 779.69,44.47 779.18,61.82 774.56,76.59 755.78,112.20 744.36,130.98 736.06,141.15 734.42,147.71 735.10,154.99 742.86,173.31 744.67,191.68 745.23,197.80 741.69,205.11 735.69,208.74 717.35,215.76 711.89,216.63 707.69,218.60 705.72,220.77 704.82,223.69 705.08,232.74 705.48,240.37 706.44,247.85 708.37,267.31 711.18,288.06 714.53,307.89 716.24,314.76 720.48,321.47 725.65,327.09 729.60,331.89 731.67,334.53 732.72,337.38 733.24,342.41 732.39,347.19 730.90,352.99 726.19,359.45 720.43,367.93 711.04,385.43 710.19,393.53 709.92,398.89 709.77,404.60 710.67,420.66 712.54,425.55 714.45,429.31 716.94,432.93 717.74,435.46 718.41,442.33 716.26,453.54 716.74,467.39 716.74,475.36 719.80,496.16 723.42,502.07 734.52,512.31 738.75,516.41 743.02,520.76 748.12,528.30 751.77,534.01 756.39,542.74 760.33,548.80 764.23,552.32 766.83,554.37 768.43,556.00 771.62,559.46 774.55,563.89 776.46,572.33 777.05,580.62 774.40,595.67 771.01,623.11 768.81,634.33 768.29,639.65 765.64,645.73 763.42,656.00 768.09,664.04 784.09,679.30 794.31,688.92 810.19,708.62 813.39,715.82 815.38,723.53 811.95,759.16 811.39,776.99 812.91,794.48 816.24,828.90 817.02,854.00">
            <param key="origId" value="1019458707 1122964141 1019458710 1019458708"/>
        </lane>
        <param key="origTo" value="1706575290"/>
    </edge>
    <edge id="-1019458712" from="9402647552" to="9402647536" name="Molino River Drive" priority="10" type="highway.tertiary" shape="920.08,1315.46 907.86,1305.55 901.47,1297.54 895.08,1270.55 887.87,1226.50 876.57,1185.83 859.96,1123.89 847.34,1066.71 849.13,1044.30 846.72,1026.88 842.17,999.75 840.67,969.78 841.29,861.86">
        <lane id="-1019458712_0" index="0" disallow="pedestrian tram rail_urban rail rail_electric rail_fast ship container cable_car subway aircraft wheelchair scooter drone" speed="13.89" length="463.86" shape="919.07,1316.71 906.72,1306.69 900.00,1298.26 893.51,1270.87 886.31,1226.85 875.02,1186.25 858.41,1124.27 845.72,1066.82 847.52,1044.34 845.14,1027.12 840.57,999.92 839.07,969.82 839.65,868.18">
            <param key="origId" value="1019458712"/>
        </lane>
    </edge>
    <edge id="-183541938#7" from="289688369" to="1257552857" name="Avenida Rizal" priority="11" type="highway.secondary" shape="637.25,651.50 603.65,653.19 554.38,655.53 550.23,655.65 548.21,655.72 530.98,656.93 524.18,657.21 516.75,657.52 492.33,658.54 424.29,662.61 415.38,663.15 383.88,665.02 375.34,665.55 362.09,665.39 351.18,663.46 338.45,658.12 318.58,646.93 298.67,631.95 260.26,606.11 215.36,574.75 141.76,497.99 130.02,490.30 125.86,489.40 118.44,487.78 63.54,484.90 50.21,484.36 0.00,482.36">
        <lane id="-183541938#7_0" index="0" disallow="pedestrian tram rail_urban rail rail_electric rail_fast ship container cable_car subway aircraft wheelchair scooter drone" speed="11.11" length="689.31" shape="626.50,653.65 603.72,654.79 554.45,657.13 550.28,657.25 548.29,657.31 531.07,658.53 524.25,658.81 516.82,659.12 492.41,660.14 424.38,664.21 415.48,664.74 383.97,666.61 375.38,667.15 361.94,666.98 350.73,665.00 337.74,659.56 317.70,648.27 297.74,633.25 259.35,607.43 214.31,575.98 140.73,499.23 129.39,491.80 125.52,490.96 118.22,489.37 63.46,486.50 50.15,485.96 -0.06,483.96">
            <param key="origId" value="183541938 183541938 183541934 183541934 665787540 665787540 109973440"/>
        </lane>
    </edge>
    <edge id="-282194769#1" from="cluster_5214311476_8654186377" to="289688369" name="Molino Road" priority="12" type="highway.primary" shape="599.98,859.54 603.29,842.49 604.16,838.79 604.68,836.29 614.27,789.65 622.29,751.04 625.17,735.11 626.13,729.32 626.95,724.26 632.98,690.81 634.25,681.73 635.26,674.54 636.01,668.53 637.25,651.50">
        <lane id="-282194769#1_0" index="0" disallow="pedestrian tram rail_urban rail rail_electric rail_fast ship container cable_car subway aircraft wheelchair scooter drone" speed="16.67" length="195.41" shape="596.74,851.07 598.60,841.48 599.48,837.74 599.98,835.33 609.57,788.68 617.58,750.12 620.45,734.27 621.39,728.54 622.22,723.44 628.24,690.05 629.50,681.07 630.50,673.90 631.23,668.06 631.88,659.15">
            <param key="origId" value="282194769 183543973 183543973"/>
        </lane>
        <lane id="-282194769#1_1" index="1" disallow="pedestrian tram rail_urban rail rail_electric rail_fast ship container cable_car subway aircraft wheelchair scooter drone" speed="16.67" length="195.41" shape="599.88,851.68 601.73,842.16 602.60,838.44 603.11,835.97 612.70,789.33 620.72,750.73 623.60,734.83 624.55,729.06 625.38,723.99 631.40,690.55 632.67,681.51 633.67,674.33 634.42,668.38 635.07,659.38">