<?xml version="1.0" encoding="UTF-8"?>

<!-- generated on 2025-09-17 21:40:08.418753 by randomTrips.py v1_24_0+0000-b72eb3fabc8
<configuration>
    <net-file value="osm.net.xml.gz"/>
    <output-trip-file value="osm.truck.trips.xml"/>
    <route-file value="osm.truck.rou.xml"/>
    <prefix value="truck"/>
    <trip-attributes value="departLane=&quot;best&quot;"/>
    <fringe-start-attributes value="departSpeed=&quot;max&quot;"/>
    <vehicle-class value="truck"/>
    <fringe-factor value="5"/>
    <edge-permission value="truck"/>
    <via-edge-types value="highway.motorway,highway.motorway_link,highway.trunk_link,highway.primary_link,highway.secondary_link,highway.tertiary_link"/>
    <seed value="45"/>
    <min-distance value="600.0"/>
    <min-distance.fringe value="10.0"/>
    <remove-loops value="True"/>
    <insertion-density value="8.0"/>
</configuration>
-->

<routes xmlns:xsi="http://www.w3.org/2001/XMLSchema-instance" xsi:noNamespaceSchemaLocation="http://sumo.dlr.de/xsd/routes_file.xsd">
    <vType id="truck_truck" vClass="truck"/>
    <trip id="truck0" depart="0.00" from="1296098177" to="587063887#0" departLane="best" type="truck_truck" departSpeed="max"/>
    <trip id="truck1" depart="131.12" from="587063904" to="-1293084433" departLane="best" type="truck_truck" departSpeed="max"/>
    <trip id="truck2" depart="262.25" from="587063904" to="-1293084433" departLane="best" type="truck_truck" departSpeed="max"/>
    <trip id="truck3" depart="393.37" from="-587063887#5" to="-1293084433" departLane="best" type="truck_truck" departSpeed="max"/>
    <trip id="truck4" depart="524.50" from="-587063887#5" to="-333292211#2" departLane="best" type="truck_truck" departSpeed="max"/>
    <trip id="truck5" depart="655.62" from="-587063887#5" to="-333292211#2" departLane="best" type="truck_truck" departSpeed="max"/>
    <trip id="truck6" depart="786.75" from="587063904" to="587063887#0" departLane="best" type="truck_truck" departSpeed="max"/>
    <trip id="truck7" depart="917.87" from="587063904" to="587063887#0" departLane="best" type="truck_truck" departSpeed="max"/>
    <trip id="truck8" depart="1049.00" from="1296098177" to="587063887#0" departLane="best" type="truck_truck" departSpeed="max"/>
    <trip id="truck9" depart="1180.12" from="1296098177" to="-333292211#2" departLane="best" type="truck_truck" departSpeed="max"/>
    <trip id="truck10" depart="1311.25" from="-587063887#5" to="-1293084433" departLane="best" type="truck_truck" departSpeed="max"/>
    <trip id="truck11" depart="1442.37" from="587063904" to="-1293084433" departLane="best" type="truck_truck" departSpeed="max"/>
    <trip id="truck12" depart="1573.50" from="1296098177" to="587063887#0" departLane="best" type="truck_truck" departSpeed="max"/>
    <trip id="truck13" depart="1704.62" from="1296098177" to="-333292211#2" departLane="best" type="truck_truck" departSpeed="max"/>
    <trip id="truck14" depart="1835.75" from="-587063887#5" to="-333292211#2" departLane="best" type="truck_truck" departSpeed="max"/>
    <trip id="truck15" depart="1966.87" from="1296098177" to="587063887#0" departLane="best" type="truck_truck" departSpeed="max"/>
    <trip id="truck16" depart="2098.00" from="-587063887#5" to="-1293084433" departLane="best" type="truck_truck" departSpeed="max"/>
    <trip id="truck17" depart="2229.12" from="587063904" to="587063887#0" departLane="best" type="truck_truck" departSpeed="max"/>
    <trip id="truck18" depart="2360.25" from="587063904" to="587063887#0" departLane="best" type="truck_truck" departSpeed="max"/>
    <trip id="truck19" depart="2491.37" from="587063904" to="587063887#0" departLane="best" type="truck_truck" departSpeed="max"/>
    <trip id="truck20" depart="2622.50" from="1296098177" to="587063887#0" departLane="best" type="truck_truck" departSpeed="max"/>
    <trip id="truck21" depart="2753.62" from="587063904" to="-1293084433" departLane="best" type="truck_truck" departSpeed="max"/>
    <trip id="truck22" depart="2884.75" from="-587063887#5" to="-1293084433" departLane="best" type="truck_truck" departSpeed="max"/>
    <trip id="truck23" depart="3015.87" from="587063904" to="587063887#0" departLane="best" type="truck_truck" departSpeed="max"/>
    <trip id="truck24" depart="3147.00" from="587063904" to="587063887#0" departLane="best" type="truck_truck" departSpeed="max"/>
    <trip id="truck25" depart="3278.12" from="587063904" to="587063887#0" departLane="best" type="truck_truck" departSpeed="max"/>
    <trip id="truck26" depart="3409.25" from="-587063887#5" to="-1293084433" departLane="best" type="truck_truck" departSpeed="max"/>
    <trip id="truck27" depart="3540.37" from="1296098177" to="-333292211#2" departLane="best" type="truck_truck" departSpeed="max"/>
</routes>
