<?xml version="1.0" encoding="UTF-8"?>

<!-- generated on 2025-09-17 21:40:06.782454 by randomTrips.py v1_24_0+0000-b72eb3fabc8
<configuration>
    <net-file value="osm.net.xml.gz"/>
    <output-trip-file value="osm.bus.trips.xml"/>
    <route-file value="osm.bus.rou.xml"/>
    <prefix value="bus"/>
    <trip-attributes value="departLane=&quot;best&quot;"/>
    <fringe-start-attributes value="departSpeed=&quot;max&quot;"/>
    <vehicle-class value="bus"/>
    <fringe-factor value="5"/>
    <edge-permission value="bus"/>
    <via-edge-types value="highway.motorway,highway.motorway_link,highway.trunk_link,highway.primary_link,highway.secondary_link,highway.tertiary_link"/>
    <min-distance value="600.0"/>
    <min-distance.fringe value="10.0"/>
    <remove-loops value="True"/>
    <insertion-density value="4.0"/>
</configuration>
-->

<!-- generated on 2025-09-17 21:40:06 by Eclipse SUMO duarouter Version 1.24.0
<duarouterConfiguration xmlns:xsi="http://www.w3.org/2001/XMLSchema-instance" xsi:noNamespaceSchemaLocation="http://sumo.dlr.de/xsd/duarouterConfiguration.xsd">

    <input>
        <net-file value="osm.net.xml.gz"/>
        <route-files value="osm.bus.trips.xml"/>
    </input>

    <output>
        <output-file value="osm.bus.rou.xml"/>
        <alternatives-output value="NUL"/>
    </output>

    <processing>
        <remove-loops value="true"/>
    </processing>

    <time>
        <begin value="0.0"/>
        <end value="3600.0"/>
    </time>

    <report>
        <no-warnings value="true"/>
        <ignore-errors value="true"/>
        <no-step-log value="true"/>
    </report>

</duarouterConfiguration>
-->

<routes xmlns:xsi="http://www.w3.org/2001/XMLSchema-instance" xsi:noNamespaceSchemaLocation="http://sumo.dlr.de/xsd/routes_file.xsd">
    <vType id="bus_bus" vClass="bus"/>
    <vehicle id="bus0" type="bus_bus" depart="0.00" departLane="best" departSpeed="max">
        <route edges="587063904 1252226326 1252226316 587063887#0"/>
    </vehicle>
    <vehicle id="bus1" type="bus_bus" depart="262.25" departLane="best" departSpeed="max">
        <route edges="587063904 1252226326 587063900#0 -1252226314 -1293084433"/>
    </vehicle>
    <vehicle id="bus2" type="bus_bus" depart="524.50" departLane="best" departSpeed="max">
        <route edges="1296098177 1287697069 1252226323 1252226316 587063887#0"/>
    </vehicle>
    <vehicle id="bus3" type="bus_bus" depart="786.75" departLane="best" departSpeed="max">
        <route edges="1296098177 1287697069 1252226323 1252226316 587063887#0"/>
    </vehicle>
    <vehicle id="bus4" type="bus_bus" depart="1049.00" departLane="best" departSpeed="max">
        <route edges="-587063887#5 1252226318#0 587063900#0 -1252226314 -1293084433"/>
    </vehicle>
    <vehicle id="bus5" type="bus_bus" depart="1311.25" departLane="best" departSpeed="max">
        <route edges="1296098177 1287697069 1252226323 1252226316 587063887#0"/>
    </vehicle>
    <vehicle id="bus6" type="bus_bus" depart="1573.50" departLane="best" departSpeed="max">
        <route edges="1296098177 1287697069 1252226323 1252226316 587063887#0"/>
    </vehicle>
    <vehicle id="bus7" type="bus_bus" depart="1835.75" departLane="best" departSpeed="max">
        <route edges="-587063887#5 1252226318#0 421085682 -333292211#2"/>
    </vehicle>
    <vehicle id="bus8" type="bus_bus" depart="2098.00" departLane="best" departSpeed="max">
        <route edges="587063904 1252226326 1252226316 587063887#0"/>
    </vehicle>
    <vehicle id="bus9" type="bus_bus" depart="2360.25" departLane="best" departSpeed="max">
        <route edges="1296098177 1287697069 1252226323 1252226316 587063887#0"/>
    </vehicle>
    <vehicle id="bus10" type="bus_bus" depart="2622.50" departLane="best" departSpeed="max">
        <route edges="-587063887#5 1252226318#0 421085682 -333292211#2"/>
    </vehicle>
    <vehicle id="bus11" type="bus_bus" depart="2884.75" departLane="best" departSpeed="max">
        <route edges="587063904 1252226326 587063900#0 -1252226314 -1293084433"/>
    </vehicle>
    <vehicle id="bus12" type="bus_bus" depart="3147.00" departLane="best" departSpeed="max">
        <route edges="1296098177 1287697069 1252226323 1252226316 587063887#0"/>
    </vehicle>
    <vehicle id="bus13" type="bus_bus" depart="3409.25" departLane="best" departSpeed="max">
        <route edges="587063904 1252226326 1252226316 587063887#0"/>
    </vehicle>
</routes>
