<?xml version="1.0" encoding="UTF-8"?>

<!-- generated on 2025-09-17 21:40:07.551357 by randomTrips.py v1_24_0+0000-b72eb3fabc8
<configuration>
    <net-file value="osm.net.xml.gz"/>
    <output-trip-file value="osm.motorcycle.trips.xml"/>
    <route-file value="osm.motorcycle.rou.xml"/>
    <prefix value="motorcycle"/>
    <trip-attributes value="departLane=&quot;best&quot;"/>
    <fringe-start-attributes value="departSpeed=&quot;max&quot;"/>
    <vehicle-class value="motorcycle"/>
    <fringe-factor value="2"/>
    <edge-permission value="motorcycle"/>
    <via-edge-types value="highway.motorway,highway.motorway_link,highway.trunk_link,highway.primary_link,highway.secondary_link,highway.tertiary_link"/>
    <seed value="43"/>
    <max-distance value="1200.0"/>
    <remove-loops value="True"/>
    <insertion-density value="4.0"/>
</configuration>
-->

<routes xmlns:xsi="http://www.w3.org/2001/XMLSchema-instance" xsi:noNamespaceSchemaLocation="http://sumo.dlr.de/xsd/routes_file.xsd">
    <vType id="motorcycle_motorcycle" vClass="motorcycle"/>
    <trip id="motorcycle0" depart="0.00" from="-587063887#5" to="1252226318#0" departLane="best" type="motorcycle_motorcycle" departSpeed="max"/>
    <trip id="motorcycle1" depart="262.25" from="1296098177" to="587063887#0" departLane="best" type="motorcycle_motorcycle" departSpeed="max"/>
    <trip id="motorcycle2" depart="524.50" from="1252226326" to="1252226318#0" departLane="best" type="motorcycle_motorcycle"/>
    <trip id="motorcycle3" depart="786.75" from="1252226323" to="587063887#0" departLane="best" type="motorcycle_motorcycle"/>
    <trip id="motorcycle4" depart="1049.00" from="1287697069" to="421085682" departLane="best" type="motorcycle_motorcycle"/>
    <trip id="motorcycle5" depart="1311.25" from="1252226326" to="-1293084433" departLane="best" type="motorcycle_motorcycle"/>
    <trip id="motorcycle6" depart="1573.50" from="1252226323" to="-1293084433" departLane="best" type="motorcycle_motorcycle"/>
    <trip id="motorcycle7" depart="1835.75" from="1287697069" to="1252226318#0" departLane="best" type="motorcycle_motorcycle"/>
    <trip id="motorcycle8" depart="2098.00" from="421085682" to="1252226326" departLane="best" type="motorcycle_motorcycle"/>
    <trip id="motorcycle9" depart="2360.25" from="1287697069" to="1252226326" departLane="best" type="motorcycle_motorcycle"/>
    <trip id="motorcycle10" depart="2622.50" from="1252226323" to="-1252226314" departLane="best" type="motorcycle_motorcycle"/>
    <trip id="motorcycle11" depart="2884.75" from="-587063887#5" to="587063887#0" departLane="best" type="motorcycle_motorcycle" departSpeed="max"/>
    <trip id="motorcycle12" depart="3147.00" from="1296098177" to="587063900#0" departLane="best" type="motorcycle_motorcycle" departSpeed="max"/>
    <trip id="motorcycle13" depart="3409.25" from="1296098177" to="-1293084433" departLane="best" type="motorcycle_motorcycle" departSpeed="max"/>
</routes>
