<?xml version="1.0" encoding="UTF-8"?>

<!-- generated on 2025-09-17 21:49:30.874350 by randomTrips.py v1_24_0+0000-b72eb3fabc8
<configuration>
    <net-file value="osm.net.xml.gz"/>
    <output-trip-file value="osm.truck.trips.xml"/>
    <route-file value="osm.truck.rou.xml"/>
    <prefix value="truck"/>
    <trip-attributes value="departLane=&quot;best&quot;"/>
    <fringe-start-attributes value="departSpeed=&quot;max&quot;"/>
    <vehicle-class value="truck"/>
    <fringe-factor value="5"/>
    <edge-permission value="truck"/>
    <via-edge-types value="highway.motorway,highway.motorway_link,highway.trunk_link,highway.primary_link,highway.secondary_link,highway.tertiary_link"/>
    <seed value="45"/>
    <min-distance value="600.0"/>
    <min-distance.fringe value="10.0"/>
    <remove-loops value="True"/>
    <insertion-density value="8.0"/>
</configuration>
-->

<!-- generated on 2025-09-17 21:49:30 by Eclipse SUMO duarouter Version 1.24.0
<duarouterConfiguration xmlns:xsi="http://www.w3.org/2001/XMLSchema-instance" xsi:noNamespaceSchemaLocation="http://sumo.dlr.de/xsd/duarouterConfiguration.xsd">

    <input>
        <net-file value="osm.net.xml.gz"/>
        <route-files value="osm.truck.trips.xml"/>
    </input>

    <output>
        <output-file value="osm.truck.rou.xml"/>
        <alternatives-output value="NUL"/>
    </output>

    <processing>
        <remove-loops value="true"/>
    </processing>

    <time>
        <begin value="0.0"/>
        <end value="3600.0"/>
    </time>

    <report>
        <no-warnings value="true"/>
        <ignore-errors value="true"/>
        <no-step-log value="true"/>
    </report>

</duarouterConfiguration>
-->

<routes xmlns:xsi="http://www.w3.org/2001/XMLSchema-instance" xsi:noNamespaceSchemaLocation="http://sumo.dlr.de/xsd/routes_file.xsd">
    <vType id="truck_truck" vClass="truck"/>
    <vehicle id="truck0" type="truck_truck" depart="0.00" departLane="best">
        <route edges="-158466193#0 -5031527 -109972547#1 820090516#0 183543979#0 109971518#0"/>
    </vehicle>
    <vehicle id="truck1" type="truck_truck" depart="84.91" departLane="best" departSpeed="max">
        <route edges="-158466193#1 -158466193#0 -5031527 -109972547#1 820090516#0 183543979#0 109971518#0"/>
    </vehicle>
    <vehicle id="truck2" type="truck_truck" depart="169.82" departLane="best" departSpeed="max">
        <route edges="-158466193#1 -158466193#0 -5031527 -109972547#1 820090516#0 183543979#0 109971518#0"/>
    </vehicle>
    <vehicle id="truck3" type="truck_truck" depart="254.73" departLane="best" departSpeed="max">
        <route edges="-158466193#1 -158466193#0 -5031527 -109972547#1 820090516#0 183543979#0 109971518#0"/>
    </vehicle>
    <vehicle id="truck4" type="truck_truck" depart="339.64" departLane="best" departSpeed="max">
        <route edges="130046557#0 -183543979#1 -820090516#2 109972547#0 109972547#2 158466193#0 158466193#1"/>
    </vehicle>
    <vehicle id="truck5" type="truck_truck" depart="424.55" departLane="best" departSpeed="max">
        <route edges="130046557#0 -183543979#1 -820090516#2 109972547#0 109972547#2 158466193#0 -1019458712"/>
    </vehicle>
    <vehicle id="truck6" type="truck_truck" depart="509.45" departLane="best">
        <route edges="-158466193#0 -5031527 -109972547#1 820090516#0 183543979#0 109971518#0"/>
    </vehicle>
    <vehicle id="truck7" type="truck_truck" depart="594.36" departLane="best">
        <route edges="-5031527 -109972547#1 820090516#0 183543979#0 109971518#0"/>
    </vehicle>
    <vehicle id="truck8" type="truck_truck" depart="679.27" departLane="best" departSpeed="max">
        <route edges="-158466193#1 -158466193#0 -5031527 -109972547#1 820090516#0 183543979#0 109971518#0"/>
    </vehicle>
    <vehicle id="truck9" type="truck_truck" depart="764.18" departLane="best" departSpeed="max">
        <route edges="130046557#0 -183543979#1 -820090516#2 109972547#0 109972547#2 158466193#0"/>
    </vehicle>
    <vehicle id="truck10" type="truck_truck" depart="849.09" departLane="best" departSpeed="max">
        <route edges="1019458712 -158466193#0 -5031527 -109972547#1 820090516#0 183543979#0 109971518#0"/>
    </vehicle>
    <vehicle id="truck11" type="truck_truck" depart="934.00" departLane="best" departSpeed="max">
        <route edges="130046557#0 -183543979#1 -820090516#2 109972547#0 109972547#2 158466193#0 -1019458712"/>
    </vehicle>
    <vehicle id="truck12" type="truck_truck" depart="1018.91" departLane="best" departSpeed="max">
        <route edges="1019458712 -158466193#0 -5031527 -109972547#1 820090516#0 183543979#0 109971518#0"/>
    </vehicle>
    <vehicle id="truck13" type="truck_truck" depart="1103.82" departLane="best" departSpeed="max">
        <route edges="130046557#0 -183543979#1 -820090516#2 109972547#0 109972547#2 158466193#0 -1019458712"/>
    </vehicle>
    <vehicle id="truck14" type="truck_truck" depart="1188.73" departLane="best" departSpeed="max">
        <route edges="130046557#0 -183543979#1 -820090516#2 109972547#0 109972547#2 158466193#0 -1019458712"/>
    </vehicle>
    <vehicle id="truck15" type="truck_truck" depart="1273.64" departLane="best" departSpeed="max">
        <route edges="130046557#0 -183543979#1 -820090516#2 109972547#0 109972547#2 158466193#0 158466193#1"/>
    </vehicle>
    <vehicle id="truck16" type="truck_truck" depart="1358.54" departLane="best" departSpeed="max">
        <route edges="130046557#0 -183543979#1 -820090516#2 109972547#0 109972547#2 158466193#0 158466193#1"/>
    </vehicle>
    <vehicle id="truck17" type="truck_truck" depart="1443.45" departLane="best" departSpeed="max">
        <route edges="130046557#0 -183543979#1 -820090516#2 109972547#0 109972547#2 158466193#0 158466193#1"/>
    </vehicle>
    <vehicle id="truck18" type="truck_truck" depart="1528.36" departLane="best" departSpeed="max">
        <route edges="1019458712 -158466193#0 -5031527 -109972547#1 820090516#0 183543979#0 109971518#0"/>
    </vehicle>
    <vehicle id="truck19" type="truck_truck" depart="1613.27" departLane="best" departSpeed="max">
        <route edges="130046557#0 -183543979#1 -820090516#2 109972547#0 109972547#2 158466193#0 -1019458712"/>
    </vehicle>
    <vehicle id="truck20" type="truck_truck" depart="1698.18" departLane="best" departSpeed="max">
        <route edges="1019458712 -158466193#0 -5031527 -109972547#1 820090516#0 183543979#0 109971518#0"/>
    </vehicle>
    <vehicle id="truck21" type="truck_truck" depart="1783.09" departLane="best" departSpeed="max">
        <route edges="-158466193#1 -158466193#0 -5031527 -109972547#1 820090516#0 183543979#0 109971518#0"/>
    </vehicle>
    <vehicle id="truck22" type="truck_truck" depart="1868.00" departLane="best" departSpeed="max">
        <route edges="130046557#0 -183543979#1 -820090516#2 109972547#0 109972547#2 158466193#0"/>
    </vehicle>
    <vehicle id="truck23" type="truck_truck" depart="1952.91" departLane="best">
        <route edges="-5031527 -109972547#1 820090516#0 183543979#0 109971518#0"/>
    </vehicle>
    <vehicle id="truck24" type="truck_truck" depart="2037.82" departLane="best" departSpeed="max">
        <route edges="130046557#0 -183543979#1 -820090516#2 109972547#0 109972547#2 158466193#0 158466193#1"/>
    </vehicle>
    <vehicle id="truck25" type="truck_truck" depart="2122.73" departLane="best" departSpeed="max">
        <route edges="-158466193#1 -158466193#0 -5031527 -109972547#1 820090516#0 183543979#0 109971518#0"/>
    </vehicle>
    <vehicle id="truck26" type="truck_truck" depart="2207.63" departLane="best" departSpeed="max">
        <route edges="130046557#0 -183543979#1 -820090516#2 109972547#0 109972547#2 158466193#0"/>
    </vehicle>
    <vehicle id="truck27" type="truck_truck" depart="2292.54" departLane="best" departSpeed="max">
        <route edges="1019458712 -158466193#0 -5031527 -109972547#1 820090516#0 183543979#0 109971518#0"/>
    </vehicle>
    <vehicle id="truck28" type="truck_truck" depart="2377.45" departLane="best" departSpeed="max">
        <route edges="1019458712 -158466193#0 -5031527 -109972547#1 820090516#0 183543979#0 109971518#0"/>
    </vehicle>
    <vehicle id="truck29" type="truck_truck" depart="2462.36" departLane="best" departSpeed="max">
        <route edges="130046557#0 -183543979#1 -820090516#2 109972547#0 109972547#2 158466193#0 -1019458712"/>
    </vehicle>
    <vehicle id="truck30" type="truck_truck" depart="2547.27" departLane="best" departSpeed="max">
        <route edges="1019458712 -158466193#0 -5031527 -109972547#1 820090516#0 183543979#0 109971518#0"/>
    </vehicle>
    <vehicle id="truck31" type="truck_truck" depart="2632.18" departLane="best" departSpeed="max">
        <route edges="-158466193#1 -158466193#0 -5031527 -109972547#1 820090516#0 183543979#0 109971518#0"/>
    </vehicle>
    <vehicle id="truck32" type="truck_truck" depart="2717.09" departLane="best" departSpeed="max">
        <route edges="130046557#0 -183543979#1 -820090516#2 109972547#0 109972547#2 158466193#0"/>
    </vehicle>
    <vehicle id="truck33" type="truck_truck" depart="2802.00" departLane="best" departSpeed="max">
        <route edges="130046557#0 -183543979#1 -820090516#2 109972547#0 109972547#2 158466193#0 -1019458712"/>
    </vehicle>
    <vehicle id="truck34" type="truck_truck" depart="2886.91" departLane="best" departSpeed="max">
        <route edges="130046557#0 -183543979#1 -820090516#2 109972547#0 109972547#2 158466193#0 -1019458712"/>
    </vehicle>
    <vehicle id="truck35" type="truck_truck" depart="2971.82" departLane="best" departSpeed="max">
        <route edges="-158466193#1 -158466193#0 -5031527 -109972547#1 820090516#0 183543979#0 109971518#0"/>
    </vehicle>
    <vehicle id="truck36" type="truck_truck" depart="3056.72" departLane="best" departSpeed="max">
        <route edges="1019458712 -158466193#0 -5031527 -109972547#1 820090516#0 183543979#0 109971518#0"/>
    </vehicle>
    <vehicle id="truck37" type="truck_truck" depart="3141.63" departLane="best" departSpeed="max">
        <route edges="-158466193#1 -158466193#0 -5031527 -109972547#1 820090516#0 183543979#0 109971518#0"/>
    </vehicle>
    <vehicle id="truck38" type="truck_truck" depart="3226.54" departLane="best">
        <route edges="-158466193#0 -5031527 -109972547#1 820090516#0 183543979#0 109971518#0"/>
    </vehicle>
    <vehicle id="truck39" type="truck_truck" depart="3311.45" departLane="best" departSpeed="max">
        <route edges="130046557#0 -183543979#1 -820090516#2 109972547#0 109972547#2 158466193#0 158466193#1"/>
    </vehicle>
    <vehicle id="truck40" type="truck_truck" depart="3396.36" departLane="best" departSpeed="max">
        <route edges="1019458712 -158466193#0 -5031527 -109972547#1 820090516#0 183543979#0 109971518#0"/>
    </vehicle>
    <vehicle id="truck41" type="truck_truck" depart="3481.27" departLane="best" departSpeed="max">
        <route edges="130046557#0 -183543979#1 -820090516#2 109972547#0 109972547#2 158466193#0"/>
    </vehicle>
    <vehicle id="truck42" type="truck_truck" depart="3566.18" departLane="best">
        <route edges="-158466193#0 -5031527 -109972547#1 820090516#0 183543979#0 109971518#0"/>
    </vehicle>
</routes>
