<?xml version="1.0" encoding="UTF-8"?>

<!-- generated on 2025-09-17 21:49:30.261812 by randomTrips.py v1_24_0+0000-b72eb3fabc8
<configuration>
    <net-file value="osm.net.xml.gz"/>
    <output-trip-file value="osm.passenger.trips.xml"/>
    <route-file value="osm.passenger.rou.xml"/>
    <prefix value="veh"/>
    <trip-attributes value="departLane=&quot;best&quot;"/>
    <fringe-start-attributes value="departSpeed=&quot;max&quot;"/>
    <vehicle-class value="passenger"/>
    <lanes value="True"/>
    <fringe-factor value="5"/>
    <allow-fringe.min-length value="1000.0"/>
    <edge-permission value="passenger"/>
    <via-edge-types value="highway.motorway,highway.motorway_link,highway.trunk_link,highway.primary_link,highway.secondary_link,highway.tertiary_link"/>
    <seed value="44"/>
    <min-distance value="300.0"/>
    <min-distance.fringe value="10.0"/>
    <remove-loops value="True"/>
    <insertion-density value="12.0"/>
</configuration>
-->

<!-- generated on 2025-09-17 21:49:30 by Eclipse SUMO duarouter Version 1.24.0
<duarouterConfiguration xmlns:xsi="http://www.w3.org/2001/XMLSchema-instance" xsi:noNamespaceSchemaLocation="http://sumo.dlr.de/xsd/duarouterConfiguration.xsd">

    <input>
        <net-file value="osm.net.xml.gz"/>
        <route-files value="osm.passenger.trips.xml"/>
    </input>

    <output>
        <output-file value="osm.passenger.rou.xml"/>
        <alternatives-output value="NUL"/>
    </output>

    <processing>
        <remove-loops value="true"/>
    </processing>

    <time>
        <begin value="0.0"/>
        <end value="3600.0"/>
    </time>

    <report>
        <no-warnings value="true"/>
        <ignore-errors value="true"/>
        <no-step-log value="true"/>
    </report>

</duarouterConfiguration>
-->

<routes xmlns:xsi="http://www.w3.org/2001/XMLSchema-instance" xsi:noNamespaceSchemaLocation="http://sumo.dlr.de/xsd/routes_file.xsd">
    <vType id="veh_passenger" vClass="passenger"/>
    <vehicle id="veh0" type="veh_passenger" depart="0.00" departLane="best" departSpeed="max">
        <route edges="1019458712 -158466193#0 -5031527 -109972547#1 820090516#0 183543979#0 109971518#0"/>
    </vehicle>
    <vehicle id="veh1" type="veh_passenger" depart="56.61" departLane="best" departSpeed="max">
        <route edges="-183532951#1 -183543979#1 -820090516#2 109972547#0 109972547#2 158466193#0 -1019458712"/>
    </vehicle>
    <vehicle id="veh2" type="veh_passenger" depart="113.21" departLane="best">
        <route edges="820090516#0 183543979#0 109971518#0"/>
    </vehicle>
    <vehicle id="veh3" type="veh_passenger" depart="169.82" departLane="best" departSpeed="max">
        <route edges="1019458712 -158466193#0 -5031527 -109972547#1 820090516#0 183543979#0 109971505"/>
    </vehicle>
    <vehicle id="veh4" type="veh_passenger" depart="226.42" departLane="best" departSpeed="max">
        <route edges="130046557#0 -183543979#1"/>
    </vehicle>
    <vehicle id="veh5" type="veh_passenger" depart="283.03" departLane="best" departSpeed="max">
        <route edges="130046557#0 -183543979#1 -820090516#2 109972547#0 -182804112"/>
    </vehicle>
    <vehicle id="veh6" type="veh_passenger" depart="339.64" departLane="best" departSpeed="max">
        <route edges="130046557#0 -183543979#1 -820090516#2"/>
    </vehicle>
    <vehicle id="veh7" type="veh_passenger" depart="396.24" departLane="best" departSpeed="max">
        <route edges="-158466193#1 -158466193#0 -5031527 -109972547#1 820090516#0 183543979#0 109971505"/>
    </vehicle>
    <vehicle id="veh8" type="veh_passenger" depart="452.85" departLane="best" departSpeed="max">
        <route edges="-183532951#1 -183543979#1 -820090516#2 -282194769#4"/>
    </vehicle>
    <vehicle id="veh9" type="veh_passenger" depart="509.45" departLane="best" departSpeed="max">
        <route edges="-183532951#1 -183543979#1 -820090516#2 109972547#0 109972547#2 158466193#0 -1019458712"/>
    </vehicle>
    <vehicle id="veh10" type="veh_passenger" depart="566.06" departLane="best" departSpeed="max">
        <route edges="130046557#0 -183543979#1 -820090516#2 109972547#0 109972547#2 158466193#0 158466193#1"/>
    </vehicle>
    <vehicle id="veh11" type="veh_passenger" depart="622.67" departLane="best">
        <route edges="182804115#2 -109972547#1 820090516#0 183543979#0 109971518#0"/>
    </vehicle>
    <vehicle id="veh12" type="veh_passenger" depart="679.27" departLane="best" departSpeed="max">
        <route edges="130046557#0 -183543979#1"/>
    </vehicle>
    <vehicle id="veh13" type="veh_passenger" depart="735.88" departLane="best" departSpeed="max">
        <route edges="282194769#0 820090516#0 183543979#0 109971518#0"/>
    </vehicle>
    <vehicle id="veh14" type="veh_passenger" depart="792.48" departLane="best" departSpeed="max">
        <route edges="282194769#0 820090516#0 183543979#0 109971518#0"/>
    </vehicle>
    <vehicle id="veh15" type="veh_passenger" depart="849.09" departLane="best" departSpeed="max">
        <route edges="282194769#0 109972547#0 109972547#2 158466193#0 -1019458712"/>
    </vehicle>
    <vehicle id="veh16" type="veh_passenger" depart="905.70" departLane="best" departSpeed="max">
        <route edges="-183532951#1 -183543979#1 -820090516#2 -282194769#4"/>
    </vehicle>
    <vehicle id="veh17" type="veh_passenger" depart="962.30" departLane="best" departSpeed="max">
        <route edges="130046557#0 -183543979#1 -820090516#2 109972547#0 109972547#2 158466193#0 -1019458712"/>
    </vehicle>
    <vehicle id="veh18" type="veh_passenger" depart="1018.91" departLane="best" departSpeed="max">
        <route edges="130046557#0 -183543979#1 182804118#0 -182804115#1"/>
    </vehicle>
    <vehicle id="veh19" type="veh_passenger" depart="1075.51" departLane="best" departSpeed="max">
        <route edges="-183532951#1 109971518#0"/>
    </vehicle>
    <vehicle id="veh20" type="veh_passenger" depart="1132.12" departLane="best" departSpeed="max">
        <route edges="282194769#0 820090516#0 183543979#0 109971518#0"/>
    </vehicle>
    <vehicle id="veh21" type="veh_passenger" depart="1188.73" departLane="best">
        <route edges="183543979#0 109971518#0"/>
    </vehicle>
    <vehicle id="veh22" type="veh_passenger" depart="1245.33" departLane="best" departSpeed="max">
        <route edges="-183532951#1 -183543979#1 -820090516#2 109972547#0 109972547#2 158466193#0 -1019458712"/>
    </vehicle>
    <vehicle id="veh23" type="veh_passenger" depart="1301.94" departLane="best" departSpeed="max">
        <route edges="-183532951#1 109971518#0"/>
    </vehicle>
    <vehicle id="veh24" type="veh_passenger" depart="1358.54" departLane="best" departSpeed="max">
        <route edges="130046557#0 -183543979#1 -820090516#2 -282194769#4"/>
    </vehicle>
    <vehicle id="veh25" type="veh_passenger" depart="1415.15" departLane="best" departSpeed="max">
        <route edges="282194769#0 109972547#0 109972547#2 158466193#0 158466193#1"/>
    </vehicle>
    <vehicle id="veh26" type="veh_passenger" depart="1471.76" departLane="best" departSpeed="max">
        <route edges="-183532951#1 -183543979#1 -820090516#2 109972547#0 109972547#2 158466193#0 -1019458712"/>
    </vehicle>
    <vehicle id="veh27" type="veh_passenger" depart="1528.36" departLane="best" departSpeed="max">
        <route edges="130046557#0 -183543979#1 182804118#0 182804115#2"/>
    </vehicle>
    <vehicle id="veh28" type="veh_passenger" depart="1584.97" departLane="best" departSpeed="max">
        <route edges="130046557#0 -183543979#1 -820090516#2 -282194769#4"/>
    </vehicle>
    <vehicle id="veh29" type="veh_passenger" depart="1641.57" departLane="best" departSpeed="max">
        <route edges="130046557#0 46753244 5031493"/>
    </vehicle>
    <vehicle id="veh30" type="veh_passenger" depart="1698.18" departLane="best" departSpeed="max">
        <route edges="-158466193#1 -158466193#0 -5031527 -109972547#1 -282194769#4"/>
    </vehicle>
    <vehicle id="veh31" type="veh_passenger" depart="1754.79" departLane="best">
        <route edges="5031493 -182804118#2 183543979#0 109971518#0"/>
    </vehicle>
    <vehicle id="veh32" type="veh_passenger" depart="1811.39" departLane="best" departSpeed="max">
        <route edges="-158466193#1 -158466193#0 -5031527 -109972547#1 820090516#0 183543979#0 109971505"/>
    </vehicle>
    <vehicle id="veh33" type="veh_passenger" depart="1868.00" departLane="best" departSpeed="max">
        <route edges="130046557#0 -183543979#1"/>
    </vehicle>
    <vehicle id="veh34" type="veh_passenger" depart="1924.60" departLane="best" departSpeed="max">
        <route edges="-158466193#1 -158466193#0 -5031527 -109972547#1 820090516#0 183543979#0"/>
    </vehicle>
    <vehicle id="veh35" type="veh_passenger" depart="1981.21" departLane="best" departSpeed="max">
        <route edges="130046557#0 -183543979#1 -820090516#2 109972547#0 109972547#2 158466193#0 158466193#1"/>
    </vehicle>
    <vehicle id="veh36" type="veh_passenger" depart="2037.82" departLane="best" departSpeed="max">
        <route edges="-183532951#1 109971518#0"/>
    </vehicle>
    <vehicle id="veh37" type="veh_passenger" depart="2094.42" departLane="best" departSpeed="max">
        <route edges="130046557#0 -183543979#1 182804118#0 182804115#2 -109972547#1"/>
    </vehicle>
    <vehicle id="veh38" type="veh_passenger" depart="2151.03" departLane="best" departSpeed="max">
        <route edges="-183532951#1 -183543979#1 -820090516#2 -282194769#4"/>
    </vehicle>
    <vehicle id="veh39" type="veh_passenger" depart="2207.63" departLane="best" departSpeed="max">
        <route edges="130046557#0 -183543979#1"/>
    </vehicle>
    <vehicle id="veh40" type="veh_passenger" depart="2264.24" departLane="best" departSpeed="max">
        <route edges="-158466193#1 -158466193#0 -5031527 -109972547#1 820090516#0 183543979#0"/>
    </vehicle>
    <vehicle id="veh41" type="veh_passenger" depart="2320.85" departLane="best">
        <route edges="183543979#0 109971518#0"/>
    </vehicle>
    <vehicle id="veh42" type="veh_passenger" depart="2377.45" departLane="best" departSpeed="max">
        <route edges="282194769#0 820090516#0 183543979#0 109971505"/>
    </vehicle>
    <vehicle id="veh43" type="veh_passenger" depart="2434.06" departLane="best" departSpeed="max">
        <route edges="130046557#0 109971505"/>
    </vehicle>
    <vehicle id="veh44" type="veh_passenger" depart="2490.66" departLane="best" departSpeed="max">
        <route edges="-183532951#1 109971518#0"/>
    </vehicle>
    <vehicle id="veh45" type="veh_passenger" depart="2547.27" departLane="best">
        <route edges="182804118#0 182804115#2 109972547#2 158466193#0 -1019458712"/>
    </vehicle>
    <vehicle id="veh46" type="veh_passenger" depart="2603.88" departLane="best">
        <route edges="183543979#0 109971518#0"/>
    </vehicle>
    <vehicle id="veh47" type="veh_passenger" depart="2660.48" departLane="best" departSpeed="max">
        <route edges="-183532951#1 -183543979#1 -820090516#2 109972547#0 109972547#2 158466193#0 -1019458712"/>
    </vehicle>
    <vehicle id="veh48" type="veh_passenger" depart="2717.09" departLane="best" departSpeed="max">
        <route edges="282194769#0 820090516#0 183543979#0 109971518#0"/>
    </vehicle>
    <vehicle id="veh49" type="veh_passenger" depart="2773.69" departLane="best">
        <route edges="-46753244 109971518#0"/>
    </vehicle>
    <vehicle id="veh50" type="veh_passenger" depart="2830.30" departLane="best">
        <route edges="183543979#0 109971518#0"/>
    </vehicle>
    <vehicle id="veh51" type="veh_passenger" depart="2886.91" departLane="best" departSpeed="max">
        <route edges="282194769#0 109972547#0 109972547#2 158466193#0 -1019458712"/>
    </vehicle>
    <vehicle id="veh52" type="veh_passenger" depart="2943.51" departLane="best" departSpeed="max">
        <route edges="282194769#0 820090516#0 182804118#0 -182804115#1"/>
    </vehicle>
    <vehicle id="veh53" type="veh_passenger" depart="3000.12" departLane="best">
        <route edges="-158466193#0 -5031527 -109972547#1"/>
    </vehicle>
    <vehicle id="veh54" type="veh_passenger" depart="3056.72" departLane="best" departSpeed="max">
        <route edges="130046557#0 -183543979#1 182804118#0 182804115#2"/>
    </vehicle>
    <vehicle id="veh55" type="veh_passenger" depart="3113.33" departLane="best" departSpeed="max">
        <route edges="1019458712 -158466193#0 -5031527 -109972547#1 820090516#0 183543979#0 46753244"/>
    </vehicle>
    <vehicle id="veh56" type="veh_passenger" depart="3169.94" departLane="best" departSpeed="max">
        <route edges="282194769#0 109972547#0 109972547#2 158466193#0 158466193#1"/>
    </vehicle>
    <vehicle id="veh57" type="veh_passenger" depart="3226.54" departLane="best" departSpeed="max">
        <route edges="-183532951#1 -183543979#1 -820090516#2 -282194769#4"/>
    </vehicle>
    <vehicle id="veh58" type="veh_passenger" depart="3283.15" departLane="best" departSpeed="max">
        <route edges="-183532951#1 -183543979#1 -820090516#2 -282194769#4"/>
    </vehicle>
    <vehicle id="veh59" type="veh_passenger" depart="3339.75" departLane="best" departSpeed="max">
        <route edges="130046557#0 -183543979#1"/>
    </vehicle>
    <vehicle id="veh60" type="veh_passenger" depart="3396.36" departLane="best" departSpeed="max">
        <route edges="282194769#0 820090516#0 183543979#0 109971505"/>
    </vehicle>
    <vehicle id="veh61" type="veh_passenger" depart="3452.97" departLane="best" departSpeed="max">
        <route edges="282194769#0 820090516#0 183543979#0 109971518#0"/>
    </vehicle>
    <vehicle id="veh62" type="veh_passenger" depart="3509.57" departLane="best" departSpeed="max">
        <route edges="282194769#0 820090516#0 183543979#0 109971505"/>
    </vehicle>
    <vehicle id="veh63" type="veh_passenger" depart="3566.18" departLane="best" departSpeed="max">
        <route edges="1019458712 -158466193#0 -5031527 -109972547#1 820090516#0 183543979#0 109971505"/>
    </vehicle>
</routes>
