<?xml version="1.0" encoding="UTF-8"?>

<!-- generated on 2025-09-17 21:58:11.063222 by randomTrips.py v1_24_0+0000-b72eb3fabc8
<configuration>
    <net-file value="osm.net.xml.gz"/>
    <output-trip-file value="osm.bus.trips.xml"/>
    <route-file value="osm.bus.rou.xml"/>
    <prefix value="bus"/>
    <trip-attributes value="departLane=&quot;best&quot;"/>
    <fringe-start-attributes value="departSpeed=&quot;max&quot;"/>
    <vehicle-class value="bus"/>
    <fringe-factor value="5"/>
    <edge-permission value="bus"/>
    <via-edge-types value="highway.motorway,highway.motorway_link,highway.trunk_link,highway.primary_link,highway.secondary_link,highway.tertiary_link"/>
    <min-distance value="600.0"/>
    <min-distance.fringe value="10.0"/>
    <remove-loops value="True"/>
    <insertion-density value="4.0"/>
</configuration>
-->

<routes xmlns:xsi="http://www.w3.org/2001/XMLSchema-instance" xsi:noNamespaceSchemaLocation="http://sumo.dlr.de/xsd/routes_file.xsd">
    <vType id="bus_bus" vClass="bus"/>
    <trip id="bus0" depart="0.00" from="690977719#0" to="183543973#0" departLane="best" type="bus_bus" departSpeed="max"/>
    <trip id="bus1" depart="352.16" from="109973440" to="183543973#0" departLane="best" type="bus_bus" departSpeed="max"/>
    <trip id="bus2" depart="704.32" from="109973440" to="183543973#0" departLane="best" type="bus_bus" departSpeed="max"/>
    <trip id="bus3" depart="1056.49" from="109973440" to="-690977716#1" departLane="best" type="bus_bus" departSpeed="max"/>
    <trip id="bus4" depart="1408.65" from="109973440" to="-690977716#1" departLane="best" type="bus_bus" departSpeed="max"/>
    <trip id="bus5" depart="1760.81" from="690977719#0" to="183543973#0" departLane="best" type="bus_bus" departSpeed="max"/>
    <trip id="bus6" depart="2112.97" from="690977719#0" to="-183541938#7" departLane="best" type="bus_bus" departSpeed="max"/>
    <trip id="bus7" depart="2465.14" from="109973440" to="183543973#0" departLane="best" type="bus_bus" departSpeed="max"/>
    <trip id="bus8" depart="2817.30" from="690977719#0" to="183543973#0" departLane="best" type="bus_bus" departSpeed="max"/>
    <trip id="bus9" depart="3169.46" from="690977719#0" to="183543973#0" departLane="best" type="bus_bus" departSpeed="max"/>
    <trip id="bus10" depart="3521.62" from="-282194769#1" to="-690977716#1" departLane="best" type="bus_bus" departSpeed="max"/>
</routes>
