<?xml version="1.0" encoding="UTF-8"?>

<!-- generated on 2025-09-17 21:58:12.871242 by randomTrips.py v1_24_0+0000-b72eb3fabc8
<configuration>
    <net-file value="osm.net.xml.gz"/>
    <output-trip-file value="osm.truck.trips.xml"/>
    <route-file value="osm.truck.rou.xml"/>
    <prefix value="truck"/>
    <trip-attributes value="departLane=&quot;best&quot;"/>
    <fringe-start-attributes value="departSpeed=&quot;max&quot;"/>
    <vehicle-class value="truck"/>
    <fringe-factor value="5"/>
    <edge-permission value="truck"/>
    <via-edge-types value="highway.motorway,highway.motorway_link,highway.trunk_link,highway.primary_link,highway.secondary_link,highway.tertiary_link"/>
    <seed value="45"/>
    <min-distance value="600.0"/>
    <min-distance.fringe value="10.0"/>
    <remove-loops value="True"/>
    <insertion-density value="8.0"/>
</configuration>
-->

<routes xmlns:xsi="http://www.w3.org/2001/XMLSchema-instance" xsi:noNamespaceSchemaLocation="http://sumo.dlr.de/xsd/routes_file.xsd">
    <vType id="truck_truck" vClass="truck"/>
    <trip id="truck0" depart="0.00" from="109973440" to="183543973#0" departLane="best" type="truck_truck" departSpeed="max"/>
    <trip id="truck1" depart="176.08" from="690977719#0" to="183543973#0" departLane="best" type="truck_truck" departSpeed="max"/>
    <trip id="truck2" depart="352.16" from="690977719#0" to="183543973#0" departLane="best" type="truck_truck" departSpeed="max"/>
    <trip id="truck3" depart="528.24" from="109973440" to="-690977716#1" departLane="best" type="truck_truck" departSpeed="max"/>
    <trip id="truck4" depart="704.32" from="-282194769#1" to="-183541938#7" departLane="best" type="truck_truck" departSpeed="max"/>
    <trip id="truck5" depart="880.41" from="690977719#0" to="-183541938#7" departLane="best" type="truck_truck" departSpeed="max"/>
    <trip id="truck6" depart="1056.49" from="-282194769#1" to="-690977716#1" departLane="best" type="truck_truck" departSpeed="max"/>
    <trip id="truck7" depart="1232.57" from="690977719#0" to="183543973#0" departLane="best" type="truck_truck" departSpeed="max"/>
    <trip id="truck8" depart="1408.65" from="109973440" to="183543973#0" departLane="best" type="truck_truck" departSpeed="max"/>
    <trip id="truck9" depart="1584.73" from="690977719#0" to="-183541938#7" departLane="best" type="truck_truck" departSpeed="max"/>
    <trip id="truck10" depart="1760.81" from="690977719#0" to="-183541938#7" departLane="best" type="truck_truck" departSpeed="max"/>
    <trip id="truck11" depart="1936.89" from="690977719#0" to="183543973#0" departLane="best" type="truck_truck" departSpeed="max"/>
    <trip id="truck12" depart="2112.97" from="109973440" to="-690977716#1" departLane="best" type="truck_truck" departSpeed="max"/>
    <trip id="truck13" depart="2289.05" from="690977719#0" to="183543973#0" departLane="best" type="truck_truck" departSpeed="max"/>
    <trip id="truck14" depart="2465.14" from="690977719#0" to="-183541938#7" departLane="best" type="truck_truck" departSpeed="max"/>
    <trip id="truck15" depart="2641.22" from="690977719#0" to="183543973#0" departLane="best" type="truck_truck" departSpeed="max"/>
    <trip id="truck16" depart="2817.30" from="109973440" to="-690977716#1" departLane="best" type="truck_truck" departSpeed="max"/>
    <trip id="truck17" depart="2993.38" from="690977719#0" to="183543973#0" departLane="best" type="truck_truck" departSpeed="max"/>
    <trip id="truck18" depart="3169.46" from="109973440" to="183543973#0" departLane="best" type="truck_truck" departSpeed="max"/>
    <trip id="truck19" depart="3345.54" from="109973440" to="-690977716#1" departLane="best" type="truck_truck" departSpeed="max"/>
    <trip id="truck20" depart="3521.62" from="109973440" to="-690977716#1" departLane="best" type="truck_truck" departSpeed="max"/>
</routes>
