<?xml version="1.0" encoding="UTF-8"?>

<!-- generated on 2025-09-03 00:54:29.213234 by osmWebWizard.py v1_24_0+0000-b72eb3fabc8
<configuration>
    <net-file value="C:\Users\kgaqu\OneDrive\Documents\4th Year\Capstone 2\v10\osm_importer\osm_scenarios\2025-09-03-00-54-25\osm.net.xml.gz"/>
    <output-trip-file value="C:\Users\kgaqu\OneDrive\Documents\4th Year\Capstone 2\v10\osm_importer\osm_scenarios\2025-09-03-00-54-25\osm.truck.trips.xml"/>
    <route-file value="C:\Users\kgaqu\OneDrive\Documents\4th Year\Capstone 2\v10\osm_importer\osm_scenarios\2025-09-03-00-54-25\osm.truck.rou.xml"/>
    <prefix value="truck"/>
    <trip-attributes value="departLane=&quot;best&quot;"/>
    <fringe-start-attributes value="departSpeed=&quot;max&quot;"/>
    <vehicle-class value="truck"/>
    <fringe-factor value="5"/>
    <edge-permission value="truck"/>
    <via-edge-types value="highway.motorway,highway.motorway_link,highway.trunk_link,highway.primary_link,highway.secondary_link,highway.tertiary_link"/>
    <seed value="47"/>
    <min-distance value="600.0"/>
    <min-distance.fringe value="10.0"/>
    <remove-loops value="True"/>
    <insertion-density value="8.0"/>
</configuration>
-->

<routes xmlns:xsi="http://www.w3.org/2001/XMLSchema-instance" xsi:noNamespaceSchemaLocation="http://sumo.dlr.de/xsd/routes_file.xsd">
    <vType id="truck_truck" vClass="truck"/>
    <trip id="truck0" depart="0.00" from="-573710407" to="-651079992#1" departLane="best" type="truck_truck" departSpeed="max"/>
    <trip id="truck1" depart="67.48" from="-573710407" to="-1019458707" departLane="best" type="truck_truck" departSpeed="max"/>
    <trip id="truck2" depart="134.95" from="1019458707" to="-938079508#0" departLane="best" type="truck_truck" departSpeed="max"/>
    <trip id="truck3" depart="202.43" from="938079508#1" to="-1019458707" departLane="best" type="truck_truck"/>
    <trip id="truck4" depart="269.91" from="1019458707" to="-938079508#2" departLane="best" type="truck_truck" departSpeed="max"/>
    <trip id="truck5" depart="337.38" from="651079976#0" to="-938079508#0" departLane="best" type="truck_truck" departSpeed="max"/>
    <trip id="truck6" depart="404.86" from="938079508#0" to="-651079992#1" departLane="best" type="truck_truck" departSpeed="max"/>
    <trip id="truck7" depart="472.34" from="-573710407" to="-651079992#1" departLane="best" type="truck_truck" departSpeed="max"/>
    <trip id="truck8" depart="539.81" from="651079976#0" to="573710407" departLane="best" type="truck_truck" departSpeed="max"/>
    <trip id="truck9" depart="607.29" from="938079508#0" to="-651079992#1" departLane="best" type="truck_truck" departSpeed="max"/>
    <trip id="truck10" depart="674.77" from="1019458707" to="573710407" departLane="best" type="truck_truck" departSpeed="max"/>
    <trip id="truck11" depart="742.24" from="1019458707" to="938079508#1" departLane="best" type="truck_truck" departSpeed="max"/>
    <trip id="truck12" depart="809.72" from="1019458707" to="938079508#1" departLane="best" type="truck_truck" departSpeed="max"/>
    <trip id="truck13" depart="877.20" from="651079976#0" to="573710407" departLane="best" type="truck_truck" departSpeed="max"/>
    <trip id="truck14" depart="944.67" from="-573710407" to="-651079992#1" departLane="best" type="truck_truck" departSpeed="max"/>
    <trip id="truck15" depart="1012.15" from="938079508#0" to="-651079992#1" departLane="best" type="truck_truck" departSpeed="max"/>
    <trip id="truck16" depart="1079.63" from="938079508#0" to="-1019458707" departLane="best" type="truck_truck" departSpeed="max"/>
    <trip id="truck17" depart="1147.10" from="651079976#0" to="-938079508#0" departLane="best" type="truck_truck" departSpeed="max"/>
    <trip id="truck18" depart="1214.58" from="1019458707" to="-938079508#2" departLane="best" type="truck_truck" departSpeed="max"/>
    <trip id="truck19" depart="1282.06" from="938079508#0" to="-651079992#1" departLane="best" type="truck_truck" departSpeed="max"/>
    <trip id="truck20" depart="1349.53" from="-573710407" to="-651079992#1" departLane="best" type="truck_truck" departSpeed="max"/>
    <trip id="truck21" depart="1417.01" from="1019458707" to="938079508#1" departLane="best" type="truck_truck" departSpeed="max"/>
    <trip id="truck22" depart="1484.48" from="-573710407" to="-1019458707" departLane="best" type="truck_truck" departSpeed="max"/>
    <trip id="truck23" depart="1551.96" from="938079508#0" to="-651079992#1" departLane="best" type="truck_truck" departSpeed="max"/>
    <trip id="truck24" depart="1619.44" from="-573710407" to="-1019458707" departLane="best" type="truck_truck" departSpeed="max"/>
    <trip id="truck25" depart="1686.91" from="-573710407" to="-1019458707" departLane="best" type="truck_truck" departSpeed="max"/>
    <trip id="truck26" depart="1754.39" from="-573710407" to="-1019458707" departLane="best" type="truck_truck" departSpeed="max"/>
    <trip id="truck27" depart="1821.87" from="651079976#0" to="-938079508#0" departLane="best" type="truck_truck" departSpeed="max"/>
    <trip id="truck28" depart="1889.34" from="651079976#0" to="-938079508#0" departLane="best" type="truck_truck" departSpeed="max"/>
    <trip id="truck29" depart="1956.82" from="-573710407" to="-1019458707" departLane="best" type="truck_truck" departSpeed="max"/>
    <trip id="truck30" depart="2024.30" from="1019458707" to="573710407" departLane="best" type="truck_truck" departSpeed="max"/>
    <trip id="truck31" depart="2091.77" from="938079508#0" to="-651079992#1" departLane="best" type="truck_truck" departSpeed="max"/>
    <trip id="truck32" depart="2159.25" from="-573710407" to="-1019458707" departLane="best" type="truck_truck" departSpeed="max"/>
    <trip id="truck33" depart="2226.73" from="-573710407" to="-1019458707" departLane="best" type="truck_truck" departSpeed="max"/>
    <trip id="truck34" depart="2294.20" from="651079976#0" to="573710407" departLane="best" type="truck_truck" departSpeed="max"/>
    <trip id="truck35" depart="2361.68" from="651079976#0" to="573710407" departLane="best" type="truck_truck" departSpeed="max"/>
    <trip id="truck36" depart="2429.16" from="1019458707" to="573710407" departLane="best" type="truck_truck" departSpeed="max"/>
    <trip id="truck37" depart="2496.63" from="938079508#1" to="-1019458707" departLane="best" type="truck_truck"/>
    <trip id="truck38" depart="2564.11" from="1019458707" to="573710407" departLane="best" type="truck_truck" departSpeed="max"/>
    <trip id="truck39" depart="2631.59" from="938079508#0" to="-651079992#1" departLane="best" type="truck_truck" departSpeed="max"/>
    <trip id="truck40" depart="2699.06" from="651079976#0" to="573710407" departLane="best" type="truck_truck" departSpeed="max"/>
    <trip id="truck41" depart="2766.54" from="-573710407" to="-651079992#1" departLane="best" type="truck_truck" departSpeed="max"/>
    <trip id="truck42" depart="2834.02" from="938079508#0" to="-1019458707" departLane="best" type="truck_truck" departSpeed="max"/>
    <trip id="truck43" depart="2901.49" from="-573710407" to="-1019458707" departLane="best" type="truck_truck" departSpeed="max"/>
    <trip id="truck44" depart="2968.97" from="1019458707" to="-938079508#0" departLane="best" type="truck_truck" departSpeed="max"/>
    <trip id="truck45" depart="3036.45" from="1019458707" to="-938079508#0" departLane="best" type="truck_truck" departSpeed="max"/>
    <trip id="truck46" depart="3103.92" from="651079976#0" to="573710407" departLane="best" type="truck_truck" departSpeed="max"/>
    <trip id="truck47" depart="3171.40" from="938079508#1" to="-1019458707" departLane="best" type="truck_truck"/>
    <trip id="truck48" depart="3238.88" from="651079976#0" to="-938079508#0" departLane="best" type="truck_truck" departSpeed="max"/>
    <trip id="truck49" depart="3306.35" from="1019458707" to="-938079508#2" departLane="best" type="truck_truck" departSpeed="max"/>
    <trip id="truck50" depart="3373.83" from="938079508#0" to="-651079992#1" departLane="best" type="truck_truck" departSpeed="max"/>
    <trip id="truck51" depart="3441.31" from="1019458707" to="573710407" departLane="best" type="truck_truck" departSpeed="max"/>
    <trip id="truck52" depart="3508.78" from="-938079508#2" to="-1019458707" departLane="best" type="truck_truck"/>
    <trip id="truck53" depart="3576.26" from="1019458707" to="573710407" departLane="best" type="truck_truck" departSpeed="max"/>
</routes>
