<?xml version="1.0" encoding="UTF-8"?>

<!-- generated on 2025-09-03 00:54:27.769318 by osmWebWizard.py v1_24_0+0000-b72eb3fabc8
<configuration>
    <net-file value="C:\Users\kgaqu\OneDrive\Documents\4th Year\Capstone 2\v10\osm_importer\osm_scenarios\2025-09-03-00-54-25\osm.net.xml.gz"/>
    <output-trip-file value="C:\Users\kgaqu\OneDrive\Documents\4th Year\Capstone 2\v10\osm_importer\osm_scenarios\2025-09-03-00-54-25\osm.bicycle.trips.xml"/>
    <route-file value="C:\Users\kgaqu\OneDrive\Documents\4th Year\Capstone 2\v10\osm_importer\osm_scenarios\2025-09-03-00-54-25\osm.bicycle.rou.xml"/>
    <prefix value="bike"/>
    <trip-attributes value="departLane=&quot;best&quot;"/>
    <fringe-start-attributes value="departSpeed=&quot;max&quot;"/>
    <vehicle-class value="bicycle"/>
    <fringe-factor value="2"/>
    <edge-permission value="bicycle"/>
    <via-edge-types value="highway.motorway,highway.motorway_link,highway.trunk_link,highway.primary_link,highway.secondary_link,highway.tertiary_link"/>
    <max-distance value="8000.0"/>
    <remove-loops value="True"/>
    <insertion-density value="6.0"/>
</configuration>
-->

<routes xmlns:xsi="http://www.w3.org/2001/XMLSchema-instance" xsi:noNamespaceSchemaLocation="http://sumo.dlr.de/xsd/routes_file.xsd">
    <vType id="bike_bicycle" vClass="bicycle"/>
    <trip id="bike0" depart="0.00" from="651079976#0" to="-1019458707" departLane="best" type="bike_bicycle" departSpeed="max"/>
    <trip id="bike1" depart="89.97" from="-938079508#2" to="-651079992#1" departLane="best" type="bike_bicycle"/>
    <trip id="bike2" depart="179.94" from="938079508#0" to="-938079508#2" departLane="best" type="bike_bicycle" departSpeed="max"/>
    <trip id="bike3" depart="269.91" from="938079508#0" to="-1019458707" departLane="best" type="bike_bicycle" departSpeed="max"/>
    <trip id="bike4" depart="359.88" from="1019458707" to="-1019458707" departLane="best" type="bike_bicycle" departSpeed="max"/>
    <trip id="bike5" depart="449.84" from="-938079508#2" to="-938079508#0" departLane="best" type="bike_bicycle"/>
    <trip id="bike6" depart="539.81" from="-573710407" to="-1019458707" departLane="best" type="bike_bicycle" departSpeed="max"/>
    <trip id="bike7" depart="629.78" from="651079976#0" to="-938079508#0" departLane="best" type="bike_bicycle" departSpeed="max"/>
    <trip id="bike8" depart="719.75" from="-938079508#2" to="-938079508#0" departLane="best" type="bike_bicycle"/>
    <trip id="bike9" depart="809.72" from="938079508#0" to="-1019458707" departLane="best" type="bike_bicycle" departSpeed="max"/>
    <trip id="bike10" depart="899.69" from="938079508#0" to="-938079508#2" departLane="best" type="bike_bicycle" departSpeed="max"/>
    <trip id="bike11" depart="989.66" from="1019458707" to="-1019458707" departLane="best" type="bike_bicycle" departSpeed="max"/>
    <trip id="bike12" depart="1079.63" from="938079508#1" to="-651079992#1" departLane="best" type="bike_bicycle"/>
    <trip id="bike13" depart="1169.59" from="-573710407" to="-1019458707" departLane="best" type="bike_bicycle" departSpeed="max"/>
    <trip id="bike14" depart="1259.56" from="938079508#0" to="-938079508#2" departLane="best" type="bike_bicycle" departSpeed="max"/>
    <trip id="bike15" depart="1349.53" from="938079508#0" to="573710407" departLane="best" type="bike_bicycle" departSpeed="max"/>
    <trip id="bike16" depart="1439.50" from="651079976#0" to="938079508#1" departLane="best" type="bike_bicycle" departSpeed="max"/>
    <trip id="bike17" depart="1529.47" from="1019458707" to="-938079508#0" departLane="best" type="bike_bicycle" departSpeed="max"/>
    <trip id="bike18" depart="1619.44" from="938079508#0" to="-938079508#2" departLane="best" type="bike_bicycle" departSpeed="max"/>
    <trip id="bike19" depart="1709.41" from="938079508#0" to="-938079508#0" departLane="best" type="bike_bicycle" departSpeed="max"/>
    <trip id="bike20" depart="1799.38" from="938079508#0" to="-1019458707" departLane="best" type="bike_bicycle" departSpeed="max"/>
    <trip id="bike21" depart="1889.34" from="-938079508#2" to="-651079992#1" departLane="best" type="bike_bicycle"/>
    <trip id="bike22" depart="1979.31" from="-573710407" to="-651079992#1" departLane="best" type="bike_bicycle" departSpeed="max"/>
    <trip id="bike23" depart="2069.28" from="-573710407" to="-651079992#1" departLane="best" type="bike_bicycle" departSpeed="max"/>
    <trip id="bike24" depart="2159.25" from="651079976#0" to="-651079992#1" departLane="best" type="bike_bicycle" departSpeed="max"/>
    <trip id="bike25" depart="2249.22" from="1019458707" to="-651079992#1" departLane="best" type="bike_bicycle" departSpeed="max"/>
    <trip id="bike26" depart="2339.19" from="-938079508#2" to="938079508#1" departLane="best" type="bike_bicycle"/>
    <trip id="bike27" depart="2429.16" from="651079976#0" to="-938079508#2" departLane="best" type="bike_bicycle" departSpeed="max"/>
    <trip id="bike28" depart="2519.13" from="-573710407" to="573710407" departLane="best" type="bike_bicycle" departSpeed="max"/>
    <trip id="bike29" depart="2609.09" from="-573710407" to="-651079992#1" departLane="best" type="bike_bicycle" departSpeed="max"/>
    <trip id="bike30" depart="2699.06" from="938079508#1" to="-938079508#2" departLane="best" type="bike_bicycle"/>
    <trip id="bike31" depart="2789.03" from="651079976#0" to="-938079508#2" departLane="best" type="bike_bicycle" departSpeed="max"/>
    <trip id="bike32" depart="2879.00" from="938079508#0" to="573710407" departLane="best" type="bike_bicycle" departSpeed="max"/>
    <trip id="bike33" depart="2968.97" from="-938079508#2" to="-1019458707" departLane="best" type="bike_bicycle"/>
    <trip id="bike34" depart="3058.94" from="1019458707" to="-651079992#1" departLane="best" type="bike_bicycle" departSpeed="max"/>
    <trip id="bike35" depart="3148.91" from="-938079508#2" to="938079508#1" departLane="best" type="bike_bicycle"/>
    <trip id="bike36" depart="3238.88" from="938079508#0" to="-651079992#1" departLane="best" type="bike_bicycle" departSpeed="max"/>
    <trip id="bike37" depart="3328.84" from="651079976#0" to="-651079992#1" departLane="best" type="bike_bicycle" departSpeed="max"/>
    <trip id="bike38" depart="3418.81" from="938079508#1" to="-938079508#0" departLane="best" type="bike_bicycle"/>
    <trip id="bike39" depart="3508.78" from="-938079508#2" to="-651079992#1" departLane="best" type="bike_bicycle"/>
    <trip id="bike40" depart="3598.75" from="651079976#0" to="-651079992#1" departLane="best" type="bike_bicycle" departSpeed="max"/>
</routes>
