<?xml version="1.0" encoding="UTF-8"?>

<!-- generated on 2025-09-17 21:57:14.544970 by randomTrips.py v1_24_0+0000-b72eb3fabc8
<configuration>
    <net-file value="osm.net.xml.gz"/>
    <output-trip-file value="osm.motorcycle.trips.xml"/>
    <route-file value="osm.motorcycle.rou.xml"/>
    <prefix value="motorcycle"/>
    <trip-attributes value="departLane=&quot;best&quot;"/>
    <fringe-start-attributes value="departSpeed=&quot;max&quot;"/>
    <vehicle-class value="motorcycle"/>
    <fringe-factor value="2"/>
    <edge-permission value="motorcycle"/>
    <via-edge-types value="highway.motorway,highway.motorway_link,highway.trunk_link,highway.primary_link,highway.secondary_link,highway.tertiary_link"/>
    <seed value="43"/>
    <max-distance value="1200.0"/>
    <remove-loops value="True"/>
    <insertion-density value="4.0"/>
</configuration>
-->

<!-- generated on 2025-09-17 21:57:14 by Eclipse SUMO duarouter Version 1.24.0
<duarouterConfiguration xmlns:xsi="http://www.w3.org/2001/XMLSchema-instance" xsi:noNamespaceSchemaLocation="http://sumo.dlr.de/xsd/duarouterConfiguration.xsd">

    <input>
        <net-file value="osm.net.xml.gz"/>
        <route-files value="osm.motorcycle.trips.xml"/>
    </input>

    <output>
        <output-file value="osm.motorcycle.rou.xml"/>
        <alternatives-output value="NUL"/>
    </output>

    <processing>
        <remove-loops value="true"/>
    </processing>

    <time>
        <begin value="0.0"/>
        <end value="3600.0"/>
    </time>

    <report>
        <no-warnings value="true"/>
        <ignore-errors value="true"/>
        <no-step-log value="true"/>
    </report>

</duarouterConfiguration>
-->

<routes xmlns:xsi="http://www.w3.org/2001/XMLSchema-instance" xsi:noNamespaceSchemaLocation="http://sumo.dlr.de/xsd/routes_file.xsd">
    <vType id="motorcycle_motorcycle" vClass="motorcycle"/>
    <vehicle id="motorcycle0" type="motorcycle_motorcycle" depart="0.00" departLane="best" departSpeed="max">
        <route edges="-573710407 -938079508#2"/>
    </vehicle>
    <vehicle id="motorcycle1" type="motorcycle_motorcycle" depart="270.32" departLane="best" departSpeed="max">
        <route edges="-573710407 -938079508#2 -938079508#0"/>
    </vehicle>
    <vehicle id="motorcycle2" type="motorcycle_motorcycle" depart="540.64" departLane="best" departSpeed="max">
        <route edges="651079976#0 573710407"/>
    </vehicle>
    <vehicle id="motorcycle3" type="motorcycle_motorcycle" depart="810.96" departLane="best" departSpeed="max">
        <route edges="1019458707 -938079508#0"/>
    </vehicle>
    <vehicle id="motorcycle4" type="motorcycle_motorcycle" depart="1081.28" departLane="best" departSpeed="max">
        <route edges="-573710407 -938079508#2 -938079508#0"/>
    </vehicle>
    <vehicle id="motorcycle5" type="motorcycle_motorcycle" depart="1351.60" departLane="best" departSpeed="max">
        <route edges="1019458707 938079508#1 573710407"/>
    </vehicle>
    <vehicle id="motorcycle6" type="motorcycle_motorcycle" depart="1621.92" departLane="best" departSpeed="max">
        <route edges="651079976#0 573710407"/>
    </vehicle>
    <vehicle id="motorcycle7" type="motorcycle_motorcycle" depart="1892.24" departLane="best" departSpeed="max">
        <route edges="1019458707 -1019458707"/>
    </vehicle>
    <vehicle id="motorcycle8" type="motorcycle_motorcycle" depart="2162.56" departLane="best" departSpeed="max">
        <route edges="938079508#0 938079508#1 573710407"/>
    </vehicle>
    <vehicle id="motorcycle9" type="motorcycle_motorcycle" depart="2432.89" departLane="best" departSpeed="max">
        <route edges="1019458707 -1019458707"/>
    </vehicle>
    <vehicle id="motorcycle10" type="motorcycle_motorcycle" depart="2703.21" departLane="best" departSpeed="max">
        <route edges="651079976#0 -938079508#2 -938079508#0"/>
    </vehicle>
    <vehicle id="motorcycle11" type="motorcycle_motorcycle" depart="2973.53" departLane="best" departSpeed="max">
        <route edges="938079508#0 -938079508#0"/>
    </vehicle>
    <vehicle id="motorcycle12" type="motorcycle_motorcycle" depart="3243.85" departLane="best" departSpeed="max">
        <route edges="651079976#0 -938079508#2 -938079508#0"/>
    </vehicle>
    <vehicle id="motorcycle13" type="motorcycle_motorcycle" depart="3514.17" departLane="best" departSpeed="max">
        <route edges="1019458707 -1019458707"/>
    </vehicle>
</routes>
