<?xml version="1.0" encoding="UTF-8"?>

<!-- generated on 2025-09-17 21:43:58 by Eclipse SUMO netedit Version 1.24.0
-->

<additional xmlns:xsi="http://www.w3.org/2001/XMLSchema-instance" xsi:noNamespaceSchemaLocation="http://sumo.dlr.de/xsd/additional_file.xsd">
    <!-- Shapes -->
    <poly id="110013466" type="landuse.farmland" color="194,194,130" fill="0" layer="-3.00" shape="422.865033,-31.927521 472.503151,-15.920999"/>
    <poly id="1134034927" type="amenity.parking" color="184,184,179" fill="1" layer="-1.00" shape="221.349202,394.271567 226.964287,384.040290 237.682879,389.855133 232.067694,400.075342 221.349202,394.271567"/>
    <poly id="1134034929" type="building.yes" color="255,230,230" fill="1" layer="-1.00" shape="230.108021,379.740627 201.398129,372.635309 204.023143,362.131694 232.743830,369.236920 230.108021,379.740627"/>
    <poly id="1134034930" type="amenity.parking" color="184,184,179" fill="1" layer="-1.00" shape="290.290946,280.845164 292.601744,264.080472 313.464335,266.839650 308.911528,283.768048 290.290946,280.845164"/>
    <poly id="1134034931" type="building.yes" color="255,230,230" fill="1" layer="-1.00" shape="292.332622,262.920828 293.513559,254.986467 307.218578,257.001099 306.037638,264.935459 292.332622,262.920828"/>
    <poly id="1134034932" type="building.yes" color="255,230,230" fill="1" layer="-1.00" shape="337.486945,291.516570 338.041735,287.173432 342.598368,287.741795 342.043577,292.084933 337.486945,291.516570"/>
    <poly id="1134034933" type="building.yes" color="255,230,230" fill="1" layer="-1.00" shape="336.493218,295.011440 337.040342,292.239871 342.129157,293.224068 341.582033,295.995636 336.493218,295.011440"/>
    <poly id="1134034934" type="building.yes" color="255,230,230" fill="1" layer="-1.00" shape="334.997495,299.064097 335.790224,296.013682 340.806286,297.308396 340.013556,300.358810 334.997495,299.064097"/>
    <poly id="1134034935" type="building.yes" color="255,230,230" fill="1" layer="-1.00" shape="332.488561,304.409482 334.104303,299.293339 340.788393,301.381177 339.161865,306.497415 332.488561,304.409482"/>
    <poly id="1134041164" type="amenity.parking" color="184,184,179" fill="1" layer="-1.00" shape="251.054322,188.473812 251.556929,185.547698 289.698490,191.960954 289.206565,194.875906 251.054322,188.473812"/>
    <poly id="118680969" type="building.commercial" color="255,230,230" fill="1" layer="-1.00" shape="269.815006,230.373112 316.754090,236.376530 314.320791,255.145412 267.381740,249.142002 269.815006,230.373112"/>
    <poly id="118681320" type="building.yes" color="255,230,230" fill="1" layer="-1.00" shape="64.013346,301.297320 105.237757,305.071168 101.772275,342.452742 60.548022,338.689974 64.013346,301.297320"/>
    <poly id="118681321" type="building.yes" color="255,230,230" fill="1" layer="-1.00" shape="12.676566,231.111950 31.641287,232.692488 29.902360,253.115315 10.948438,251.534685 12.676566,231.111950"/>
    <poly id="118681322" type="building.yes" color="255,230,230" fill="1" layer="-1.00" shape="165.413132,218.747453 183.404640,220.048984 186.482354,177.834635 168.490816,176.533097 165.413132,218.747453"/>
    <poly id="1187750480" type="building.commercial" color="255,230,230" fill="1" layer="-1.00" shape="268.859230,-25.098141 281.530561,-19.245201 285.870685,-28.524476 273.199351,-34.377418 268.859230,-25.098141"/>
    <poly id="1187750481" type="building.guardhouse" color="255,230,230" fill="1" layer="-1.00" shape="349.964029,10.871090 357.074682,13.619184 358.762019,9.277098 351.651463,6.540068 349.964029,10.871090"/>
    <poly id="1288133654" type="natural.tree_row" color="140,196,107" fill="1" layer="-4.00" shape="409.506312,-36.236150"/>
    <poly id="1288133656" type="natural.tree_row" color="140,196,107" fill="0" layer="-4.00" shape="409.506312,-36.236150 367.512296,65.696258 362.286254,79.686791 355.280245,104.616109 349.720115,130.827470 347.039530,154.567571 344.822013,186.758697"/>
    <poly id="1288133658" type="natural.tree_row" color="140,196,107" fill="0" layer="-4.00" shape="342.909485,214.409692 340.500573,249.347108 338.572281,260.586017 335.206347,272.689799 330.973803,284.369641 324.302565,298.361913 313.895497,315.563452 289.983905,347.304703"/>
    <poly id="1288133667" type="natural.tree_row" color="140,196,107" fill="0" layer="-4.00" shape="280.975736,359.259231 260.209145,386.833661"/>
    <poly id="1291344790" type="building.industrial" color="255,230,230" fill="0" layer="-1.00" shape="387.691045,386.192488 413.102945,391.147003"/>
    <poly id="130048902" type="landuse.residential" color="235,235,227" fill="1" layer="-3.00" shape="420.972117,221.145051 471.314951,233.958001 564.142800,255.293280 618.451670,267.772646 652.777968,275.769508"/>
    <poly id="1309975872" type="amenity.fast_food" color="237,199,199" fill="1" layer="-1.00" shape="320.421351,130.334135 321.056718,127.783124 326.634418,129.161405 325.998953,131.701350 320.421351,130.334135"/>
    <poly id="1309975872#1" type="building.retail" color="255,230,230" fill="1" layer="-1.00" shape="320.421351,130.334135 321.056718,127.783124 326.634418,129.161405 325.998953,131.701350 320.421351,130.334135"/>
    <poly id="1412732008" type="building.house" color="255,230,230" fill="1" layer="-1.00" shape="52.775766,11.664693 63.696643,12.287309 65.898306,-0.957169 53.451629,-2.141751 52.775766,11.664693"/>
    <poly id="1419246495" type="building.commercial" color="255,230,230" fill="1" layer="-1.00" shape="146.005124,182.940746 153.260971,185.034544 157.831538,170.120130 150.219783,168.029481 146.005124,182.940746"/>
    <poly id="1419246496" type="building.commercial" color="255,230,230" fill="1" layer="-1.00" shape="147.942792,164.242622 165.197609,168.826478 166.501167,161.344764 149.319195,156.461455 147.942792,164.242622"/>
    <poly id="1419246497" type="building.yes" color="255,230,230" fill="1" layer="-1.00" shape="305.792240,106.780385 325.853718,110.409899 326.621097,104.493380 308.643197,99.860473 305.792240,106.780385"/>
    <poly id="1419246498" type="amenity.parking" color="184,184,179" fill="1" layer="-1.00" shape="349.963327,40.054533 355.483703,26.415536 361.375639,29.174412 355.991551,42.369525 349.963327,40.054533"/>
    <poly id="1419246499" type="amenity.parking" color="184,184,179" fill="1" layer="-1.00" shape="341.391197,59.862663 346.911562,46.223664 352.792612,48.971566 347.419417,62.177653 341.391197,59.862663"/>
    <poly id="1419246500" type="building.yes" color="255,230,230" fill="1" layer="-1.00" shape="302.406188,119.050351 303.210910,113.697912 305.464268,107.502636 325.754777,111.417863 325.461811,119.753839 302.406188,119.050351"/>
    <poly id="1419246501" type="building.commercial" color="255,230,230" fill="1" layer="-1.00" shape="328.211050,55.010224 327.388547,54.696561 324.409528,61.772539 338.460308,67.502626 341.362953,60.327724 340.096697,59.840915 345.757365,46.211740 333.848186,41.159916 328.211050,55.010224"/>
    <poly id="1556756" type="landuse.grass" color="194,194,130" fill="1" layer="-3.00" shape="366.072041,132.110445 361.945354,156.981093 412.039463,167.261824 410.976788,183.694511 442.450239,188.617607 464.789899,186.428018 463.968311,124.006888 366.072041,132.110445"/>
    <poly id="1556759" type="landuse.residential" color="235,235,227" fill="1" layer="-3.00" shape="703.385972,198.971964 698.168171,178.500043 650.321618,178.424705 627.240349,132.081290 563.511569,102.110885 552.650306,69.172195 462.022332,73.481555 463.968311,124.006888 464.789899,186.428018 442.450239,188.617607 410.976788,183.694511 412.039463,167.261824 361.945354,156.981093 357.558161,204.828952 420.972117,221.145051 471.314951,233.958001 564.142800,255.293280 618.451670,267.772646 652.777968,275.769508"/>
    <poly id="1556761" type="landuse.industrial" color="209,209,204" fill="1" layer="-3.00" shape="366.072041,132.110445 463.968311,124.006888 462.022332,73.481555 472.503151,-15.920999 422.865033,-31.927521 380.043069,83.713012 371.072800,108.504762 366.072041,132.110445"/>
    <poly id="1556765" type="landuse.farmland" color="194,194,130" fill="0" layer="-3.00" shape="422.865033,-31.927521 472.503151,-15.920999 462.022332,73.481555 552.650306,69.172195 563.511569,102.110885 627.240349,132.081290 650.321618,178.424705 698.168171,178.500043 703.385972,198.971964"/>
    <poly id="183710979" type="landuse.commercial" color="209,209,204" fill="1" layer="-3.00" shape="59.657604,121.299117 90.366005,131.153347 116.319757,138.792067 127.965707,142.130744"/>
    <poly id="183710979#1" type="tourism.attraction" color="207,245,201" fill="0" layer="-2.00" shape="59.657604,121.299117 90.366005,131.153347 116.319757,138.792067 127.965707,142.130744"/>
    <poly id="183710981" type="building.yes" color="255,230,230" fill="1" layer="-1.00" shape="47.786239,203.310620 54.484116,204.512912 56.366502,194.192926 49.668524,192.979567 47.786239,203.310620"/>
    <poly id="183710983" type="building.yes" color="255,230,230" fill="1" layer="-1.00" shape="87.707530,193.893164 80.262743,192.387605 79.249726,197.354562 86.683727,198.860216 87.707530,193.893164"/>
    <poly id="183710984" type="building.yes" color="255,230,230" fill="1" layer="-1.00" shape="77.124003,197.251655 78.133293,191.864188 74.190003,191.135500 73.169928,196.523063 77.124003,197.251655"/>
    <poly id="183710986" type="building.yes" color="255,230,230" fill="1" layer="-1.00" shape="84.026331,186.223190 95.507358,187.991808 97.518112,175.114230 86.037079,173.345611 84.026331,186.223190"/>
    <poly id="183710988" type="landuse.commercial" color="209,209,204" fill="1" layer="-3.00" shape="43.758432,205.216615 59.657604,121.299117"/>
    <poly id="183710988#1" type="tourism.attraction" color="207,245,201" fill="0" layer="-2.00" shape="43.758432,205.216615 59.657604,121.299117"/>
    <poly id="237599129" type="amenity.fast_food" color="237,199,199" fill="1" layer="-1.00" shape="287.339798,231.346840 293.005063,192.651042 327.362697,201.720697 322.884263,236.809232 287.339798,231.346840"/>
    <poly id="2446019" type="landuse.commercial" color="209,209,204" fill="1" layer="-3.00" shape="127.965707,142.130744 116.319757,138.792067 90.366005,131.153347 59.657604,121.299117 43.758432,205.216615 88.091538,209.239590 89.646089,192.348758 114.071659,195.507831 127.965707,142.130744"/>
    <poly id="2446019#1" type="tourism.attraction" color="207,245,201" fill="1" layer="-2.00" shape="127.965707,142.130744 116.319757,138.792067 90.366005,131.153347 59.657604,121.299117 43.758432,205.216615 88.091538,209.239590 89.646089,192.348758 114.071659,195.507831 127.965707,142.130744"/>
    <poly id="262214652" type="building.yes" color="255,230,230" fill="1" layer="-1.00" shape="35.545678,142.595221 35.854036,134.790304 32.110061,134.646402 31.792095,142.584208 31.511685,142.586692 31.489916,149.868925 47.356257,149.905430 47.378031,142.623198 47.140760,142.625300 47.139592,135.188335 42.641841,135.183913 42.632226,142.620974 35.545678,142.595221"/>
    <poly id="262214656" type="building.house" color="255,230,230" fill="1" layer="-1.00" shape="114.757749,124.396765 116.776510,124.600225 116.399607,128.322049 123.276336,129.013700 123.752760,124.350306 125.382867,124.512941 126.226783,116.282743 123.366005,115.998204 123.524552,114.414230 121.333033,114.190165 120.885730,118.488093 122.839684,118.681060 122.542298,121.638562 118.450753,121.221053 119.086213,115.029015 115.739617,114.693444 114.757749,124.396765"/>
    <poly id="262214658" type="amenity.fast_food" color="237,199,199" fill="1" layer="-1.00" shape="289.627987,137.678368 313.610839,144.438305 315.002554,139.600818 316.383388,134.752360 292.400529,127.992419 289.627987,137.678368"/>
    <poly id="262214658#1" type="building.retail" color="255,230,230" fill="1" layer="-1.00" shape="289.627987,137.678368 313.610839,144.438305 315.002554,139.600818 316.383388,134.752360 292.400529,127.992419 289.627987,137.678368"/>
    <poly id="262214659" type="building.house" color="255,230,230" fill="1" layer="-1.00" shape="165.520097,99.268024 174.921697,101.287500 176.610881,93.503567 167.198592,91.495252 165.520097,99.268024"/>
    <poly id="262214660" type="building.yes" color="255,230,230" fill="1" layer="-1.00" shape="33.491839,105.561337 40.852631,107.322170 42.309304,101.299923 34.948609,99.550156 33.491839,105.561337"/>
    <poly id="262214663" type="building.yes" color="255,230,230" fill="1" layer="-1.00" shape="123.300206,165.811010 129.816603,167.225202 131.890896,157.866350 125.374399,156.441090 123.300206,165.811010"/>
    <poly id="262214667" type="building.yes" color="255,230,230" fill="1" layer="-1.00" shape="22.125305,54.632427 38.121027,58.308809 39.898220,50.723286 23.902396,47.035836 22.125305,54.632427"/>
    <poly id="262214668" type="building.yes" color="255,230,230" fill="1" layer="-1.00" shape="62.258934,81.335533 70.710098,83.208453 73.626114,70.245387 65.174947,68.372465 62.258934,81.335533"/>
    <poly id="262214669" type="building.yes" color="255,230,230" fill="1" layer="-1.00" shape="89.969598,209.388959 122.784603,212.329859 124.081503,198.008840 91.277265,195.067840 89.969598,209.388959"/>
    <poly id="262214670" type="building.house" color="255,230,230" fill="1" layer="-1.00" shape="92.998983,52.134314 105.607493,55.763269 108.255754,46.664938 95.636552,43.047143 92.998983,52.134314"/>
    <poly id="262214677" type="building.house" color="255,230,230" fill="1" layer="-1.00" shape="160.864528,109.457612 172.041932,111.040819 173.423165,101.367169 162.245756,99.783960 160.864528,109.457612"/>
    <poly id="262214678" type="building.yes" color="255,230,230" fill="1" layer="-1.00" shape="57.054142,94.053269 62.344597,95.876716 63.691069,92.024565 58.400613,90.201118 57.054142,94.053269"/>
    <poly id="262214682" type="building.yes" color="255,230,230" fill="1" layer="-1.00" shape="121.515559,171.338143 126.735598,172.520343 127.847258,167.729587 122.616335,166.536417 121.515559,171.338143"/>
    <poly id="262214686" type="building.yes" color="255,230,230" fill="1" layer="-1.00" shape="71.906944,83.164651 79.335291,85.245838 80.757657,80.219922 73.329309,78.138734 71.906944,83.164651"/>
    <poly id="262214687" type="building.yes" color="255,230,230" fill="1" layer="-1.00" shape="-10.271910,114.691969 8.541423,118.653234 10.560577,109.162051 -8.241978,105.200688 -10.271910,114.691969"/>
    <poly id="262214688" type="building.house" color="255,230,230" fill="1" layer="-1.00" shape="108.316308,55.938484 119.261568,58.099207 120.769942,50.604610 109.813894,48.443981 108.316308,55.938484"/>
    <poly id="262214690" type="building.house" color="255,230,230" fill="1" layer="-1.00" shape="120.494844,90.182364 131.667743,93.691239 132.812181,84.075016 121.527595,82.570242 120.494844,90.182364"/>
    <poly id="262214693" type="landuse.retail" color="194,194,130" fill="1" layer="-3.00" shape="291.485168,183.003077 329.157612,193.692372 332.386367,159.987195 318.772841,152.471477 300.903115,147.870824 291.485168,183.003077"/>
    <poly id="262214694" type="building.yes" color="255,230,230" fill="1" layer="-1.00" shape="53.170630,101.292241 56.296233,102.249510 58.351973,95.668611 55.226369,94.711342 53.170630,101.292241"/>
    <poly id="262214697" type="building.yes" color="255,230,230" fill="1" layer="-1.00" shape="120.171731,175.489074 125.375491,177.269031 126.353604,174.449371 121.160629,172.669318 120.171731,175.489074"/>
    <poly id="262214701" type="building.yes" color="255,230,230" fill="1" layer="-1.00" shape="73.851118,74.946838 83.687376,77.327639 85.092490,71.571459 75.256230,69.190657 73.851118,74.946838"/>
    <poly id="262214702" type="building.yes" color="255,230,230" fill="1" layer="-1.00" shape="-10.708101,127.544542 6.822194,129.126717 7.451253,122.215378 -10.078949,120.644269 -10.708101,127.544542"/>
    <poly id="262214703" type="building.house" color="255,230,230" fill="1" layer="-1.00" shape="128.243079,56.525638 137.928254,57.679371 138.912973,49.514330 129.227796,48.360596 128.243079,56.525638"/>
    <poly id="262214712" type="building.yes" color="255,230,230" fill="1" layer="-1.00" shape="119.714430,179.875626 124.211087,180.975696 124.898397,178.202878 120.390954,177.102904 119.714430,179.875626"/>
    <poly id="262214715" type="building.yes" color="255,230,230" fill="1" layer="-1.00" shape="17.682042,91.214795 29.395784,93.678543 36.002933,62.721143 24.289178,60.257390 17.682042,91.214795"/>
    <poly id="262214716" type="building.yes" color="255,230,230" fill="1" layer="-1.00" shape="45.706184,45.215840 50.199537,45.939654 50.813508,42.193594 46.320155,41.469779 45.706184,45.215840"/>
    <poly id="262214718" type="building.house" color="255,230,230" fill="1" layer="-1.00" shape="128.756296,47.490484 138.753947,48.608250 139.604537,41.130546 129.606883,40.012780 128.756296,47.490484"/>
    <poly id="262214721" type="building.yes" color="255,230,230" fill="1" layer="-1.00" shape="245.313547,224.724509 284.893775,230.394598 290.248584,195.619234 250.231811,189.377513 245.313547,224.724509"/>
    <poly id="262214721#1" type="shop.department_store" color="237,199,255" fill="1" layer="-1.00" shape="245.313547,224.724509 284.893775,230.394598 290.248584,195.619234 250.231811,189.377513 245.313547,224.724509"/>
    <poly id="262214725" type="building.yes" color="255,230,230" fill="1" layer="-1.00" shape="117.989488,187.272541 122.699296,188.082983 123.787625,181.875867 119.077816,181.065425 117.989488,187.272541"/>
    <poly id="262214727" type="building.yes" color="255,230,230" fill="1" layer="-1.00" shape="144.256267,208.343753 162.691839,208.634249 162.876320,197.798099 144.429857,197.496632 144.256267,208.343753"/>
    <poly id="262214728" type="building.yes" color="255,230,230" fill="0" layer="-1.00" shape="8.031381,90.304276 10.938933,77.606880 -12.297385,72.345702"/>
    <poly id="262214729" type="building.yes" color="255,230,230" fill="1" layer="-1.00" shape="54.655526,50.968835 60.437300,52.245651 62.294311,43.929006 56.512536,42.652190 54.655526,50.968835"/>
    <poly id="262214730" type="building.yes" color="255,230,230" fill="1" layer="-1.00" shape="44.109461,165.704568 47.679302,165.672942 47.649401,162.297794 44.079560,162.329419 44.109461,165.704568"/>
    <poly id="262214731" type="building.yes" color="255,230,230" fill="1" layer="-1.00" shape="114.236379,21.678196 122.383516,23.321423 123.613731,17.301190 115.466592,15.657963 114.236379,21.678196"/>
    <poly id="262214733" type="building.house" color="255,230,230" fill="1" layer="-1.00" shape="194.822590,29.508351 203.602214,30.714394 204.545178,23.922027 195.776337,22.715887 194.822590,29.508351"/>
    <poly id="262214738" type="building.yes" color="255,230,230" fill="1" layer="-1.00" shape="115.655977,195.372063 121.034748,196.209780 122.137883,189.238915 116.769896,188.401102 115.655977,195.372063"/>
    <poly id="262214742" type="building.yes" color="255,230,230" fill="1" layer="-1.00" shape="142.993878,220.473213 162.245964,220.402335 162.216698,211.006777 142.953820,211.077750 142.993878,220.473213"/>
    <poly id="262214744" type="building.yes" color="255,230,230" fill="1" layer="-1.00" shape="73.111489,63.288848 79.641152,64.979587 82.301759,54.840852 75.772093,53.150112 73.111489,63.288848"/>
    <poly id="262214746" type="building.yes" color="255,230,230" fill="1" layer="-1.00" shape="36.594754,166.047817 42.917814,166.334873 43.307258,157.942691 36.973411,157.655730 36.594754,166.047817"/>
    <poly id="262214748" type="building.house" color="255,230,230" fill="1" layer="-1.00" shape="137.214986,92.845299 146.027537,94.117429 147.410329,84.620833 138.608658,83.359672 137.214986,92.845299"/>
    <poly id="262214751" type="building.house" color="255,230,230" fill="1" layer="-1.00" shape="147.003932,31.414673 162.482445,35.151048 166.591800,27.832632 148.919015,23.562336 147.003932,31.414673"/>
    <poly id="262214756" type="building.yes" color="255,230,230" fill="1" layer="-1.00" shape="125.119075,209.210445 132.945939,210.015417 133.900253,200.854620 126.073387,200.049647 125.119075,209.210445"/>
    <poly id="262214758" type="building.yes" color="255,230,230" fill="1" layer="-1.00" shape="127.694678,149.282377 134.734444,151.333817 136.064160,146.806738 129.035276,144.766267 127.694678,149.282377"/>
    <poly id="262214758#1" type="shop.trade" color="237,199,255" fill="1" layer="-1.00" shape="127.694678,149.282377 134.734444,151.333817 136.064160,146.806738 129.035276,144.766267 127.694678,149.282377"/>
    <poly id="262214761" type="building.yes" color="255,230,230" fill="1" layer="-1.00" shape="66.023847,60.706633 72.412914,62.354347 74.718097,53.491455 68.329028,51.843740 66.023847,60.706633"/>
    <poly id="262214762" type="building.yes" color="255,230,230" fill="1" layer="-1.00" shape="19.383251,211.397654 39.489333,212.757816 40.301154,200.909009 20.195063,199.548845 19.383251,211.397654"/>
    <poly id="262214764" type="building.yes" color="255,230,230" fill="1" layer="-1.00" shape="11.412216,150.500559 24.993800,150.745432 25.195090,139.377911 11.624284,139.132941 11.412216,150.500559"/>
    <poly id="262214765" type="building.house" color="255,230,230" fill="1" layer="-1.00" shape="139.031841,79.991581 149.299300,81.129093 150.228920,72.831738 139.972243,71.694129 139.031841,79.991581"/>
    <poly id="262214769" type="building.house" color="255,230,230" fill="1" layer="-1.00" shape="149.197286,20.881677 161.863463,22.495972 162.903588,14.496447 150.237309,12.871085 149.197286,20.881677"/>
    <poly id="262214775" type="building.yes" color="255,230,230" fill="1" layer="-1.00" shape="43.608442,77.494518 51.767040,79.215087 54.842670,64.789769 46.694852,63.069103 43.608442,77.494518"/>
    <poly id="262214776" type="building.yes" color="255,230,230" fill="1" layer="-1.00" shape="12.182789,205.817320 17.803246,205.933523 17.931682,199.734904 12.311224,199.618700 12.182789,205.817320"/>
    <poly id="262214778" type="building.yes" color="255,230,230" fill="1" layer="-1.00" shape="25.448535,160.679506 29.223881,160.712459 29.275748,155.610144 25.489616,155.577287 25.448535,160.679506"/>
    <poly id="262214779" type="building.house" color="255,230,230" fill="1" layer="-1.00" shape="152.526045,71.582970 160.313532,72.808848 161.263241,66.780035 153.475851,65.565222 152.526045,71.582970"/>
    <poly id="262214781" type="building.yes" color="255,230,230" fill="1" layer="-1.00" shape="128.155155,136.728408 134.667639,137.699960 136.420260,126.119505 129.907871,125.159018 128.155155,136.728408"/>
    <poly id="262214789" type="building.yes" color="255,230,230" fill="1" layer="-1.00" shape="12.140634,212.015175 17.457639,211.968063 17.419693,207.685497 12.102687,207.732609 12.140634,212.015175"/>
    <poly id="262214791" type="building.yes" color="255,230,230" fill="1" layer="-1.00" shape="20.417224,162.539060 23.815781,162.652819 24.025598,155.900133 20.637924,155.797344 20.417224,162.539060"/>
    <poly id="262214792" type="building.house" color="255,230,230" fill="1" layer="-1.00" shape="140.445426,69.100279 150.177262,70.652012 151.496517,62.506144 141.764678,60.954410 140.445426,69.100279"/>
    <poly id="262214794" type="building.house" color="255,230,230" fill="1" layer="-1.00" shape="136.809651,135.987752 144.763507,136.514933 145.392615,127.168880 137.438757,126.641699 136.809651,135.987752"/>
    <poly id="262214796" type="building.yes" color="255,230,230" fill="1" layer="-1.00" shape="158.115432,142.494579 171.062636,145.401211 170.074708,132.494862 160.856073,130.429502 158.115432,142.494579"/>
    <poly id="262214801" type="building.yes" color="255,230,230" fill="1" layer="-1.00" shape="137.333578,163.484416 142.107119,164.183629 142.656683,160.471343 137.883140,159.772130 137.333578,163.484416"/>
    <poly id="262214802" type="building.yes" color="255,230,230" fill="1" layer="-1.00" shape="81.523669,87.550509 92.114287,89.858230 93.794524,82.284639 83.203806,79.965850 81.523669,87.550509"/>
    <poly id="262214805" type="building.yes" color="255,230,230" fill="1" layer="-1.00" shape="4.371319,215.271295 10.810258,215.247440 10.748770,198.570119 4.320612,198.593878 4.371319,215.271295"/>
    <poly id="262214808" type="building.yes" color="255,230,230" fill="1" layer="-1.00" shape="24.293361,165.426387 28.978864,165.927153 29.328005,162.725717 24.642501,162.224951 24.293361,165.426387"/>
    <poly id="262214810" type="building.house" color="255,230,230" fill="1" layer="-1.00" shape="146.399368,50.842473 155.355175,52.456415 157.021621,43.322517 148.065908,41.719640 146.399368,50.842473"/>
    <poly id="262214813" type="building.house" color="255,230,230" fill="1" layer="-1.00" shape="75.427311,111.641871 89.133910,115.039749 92.978530,99.755474 85.400963,97.874810 83.556994,105.228514 77.427956,103.711298 75.427311,111.641871"/>
    <poly id="262214816" type="building.house" color="255,230,230" fill="1" layer="-1.00" shape="157.177642,121.852007 165.392784,123.870917 166.111378,120.976088 157.896236,118.957178 157.177642,121.852007"/>
    <poly id="262214817" type="building.house" color="255,230,230" fill="1" layer="-1.00" shape="164.006008,1.350252 170.436162,2.765224 172.375479,-6.005878 165.945421,-7.409785 164.006008,1.350252"/>
    <poly id="262214821" type="building.yes" color="255,230,230" fill="1" layer="-1.00" shape="135.718439,171.101695 141.204378,171.861000 141.538823,169.434382 136.052883,168.675077 135.718439,171.101695"/>
    <poly id="262214823" type="building.yes" color="255,230,230" fill="1" layer="-1.00" shape="136.497328,167.708319 141.755900,168.370036 142.179277,165.024076 136.920704,164.362359 136.497328,167.708319"/>
    <poly id="262214830" type="building.yes" color="255,230,230" fill="1" layer="-1.00" shape="14.257019,170.893840 17.936770,171.093641 18.336696,163.885526 14.646160,163.685820 14.257019,170.893840"/>
    <poly id="262214832" type="building.yes" color="255,230,230" fill="1" layer="-1.00" shape="130.290906,29.559548 137.646808,30.767109 138.609163,24.948454 131.264043,23.740797 130.290906,29.559548"/>
    <poly id="262214834" type="building.house" color="255,230,230" fill="1" layer="-1.00" shape="120.607857,98.072079 126.136071,98.731406 126.769177,93.491145 121.240962,92.831818 120.607857,98.072079"/>
    <poly id="262214837" type="building.house" color="255,230,230" fill="1" layer="-1.00" shape="159.863038,118.165079 167.487950,119.303861 168.353827,113.552463 160.728913,112.413680 159.863038,118.165079"/>
    <poly id="262214839" type="building.house" color="255,230,230" fill="1" layer="-1.00" shape="185.130449,1.982189 195.151631,4.538471 196.643057,-1.218462 186.621873,-3.774745 185.130449,1.982189"/>
    <poly id="262214842" type="building.yes" color="255,230,230" fill="1" layer="-1.00" shape="135.553120,174.356835 139.862316,174.993757 140.229018,172.555787 135.919821,171.918864 135.553120,174.356835"/>
    <poly id="262214847" type="building.yes" color="255,230,230" fill="1" layer="-1.00" shape="14.357218,161.508195 18.101974,161.740621 18.262670,159.182736 14.517914,158.950310 14.357218,161.508195"/>
    <poly id="262214851" type="building.house" color="255,230,230" fill="1" layer="-1.00" shape="119.615092,110.199152 125.701675,110.576861 126.428835,98.905885 120.331464,98.528271 119.615092,110.199152"/>
    <poly id="262214856" type="building.yes" color="255,230,230" fill="1" layer="-1.00" shape="281.140389,164.590744 289.166659,167.208975 290.553361,163.024477 282.516305,160.406341 281.140389,164.590744"/>
    <poly id="262214857" type="building.house" color="255,230,230" fill="1" layer="-1.00" shape="182.147355,34.180130 189.849648,35.528510 191.863502,24.211358 184.161108,22.851912 182.147355,34.180130"/>
    <poly id="262214858" type="building.yes" color="255,230,230" fill="0" layer="-1.00" shape="-12.453908,125.280224 -12.245862,119.545710"/>
    <poly id="262214860" type="building.yes" color="255,230,230" fill="1" layer="-1.00" shape="134.128285,182.758180 138.459834,183.483440 139.772503,175.813505 135.440952,175.088245 134.128285,182.758180"/>
    <poly id="262214862" type="building.yes" color="255,230,230" fill="1" layer="-1.00" shape="51.149009,110.506767 54.359519,111.308346 56.130826,104.276223 52.920316,103.474643 51.149009,110.506767"/>
    <poly id="262214865" type="building.yes" color="255,230,230" fill="1" layer="-1.00" shape="8.033771,172.133143 12.812122,172.157206 12.886435,159.850120 8.108081,159.826057 8.033771,172.133143"/>
    <poly id="262214871" type="building.yes" color="255,230,230" fill="1" layer="-1.00" shape="279.594154,170.248553 287.391391,172.581071 288.827317,167.864926 281.030078,165.532407 279.594154,170.248553"/>
    <poly id="262214872" type="building.house" color="255,230,230" fill="1" layer="-1.00" shape="176.114794,45.997672 187.868339,48.084868 189.451455,39.283720 177.687121,37.196618 176.114794,45.997672"/>
    <poly id="262214875" type="building.yes" color="255,230,230" fill="1" layer="-1.00" shape="133.001616,189.507914 137.882317,190.128708 138.568953,184.843705 133.688153,184.211845 133.001616,189.507914"/>
    <poly id="262214877" type="building.yes" color="255,230,230" fill="1" layer="-1.00" shape="47.829502,87.660833 60.411046,89.463959 61.366419,82.859608 48.784872,81.056480 47.829502,87.660833"/>
    <poly id="262214886" type="building.yes" color="255,230,230" fill="1" layer="-1.00" shape="282.619186,157.406297 290.427898,159.816183 295.043355,145.089546 287.234640,142.679658 282.619186,157.406297"/>
    <poly id="262214887" type="building.house" color="255,230,230" fill="1" layer="-1.00" shape="174.904890,62.841169 182.263327,64.336458 183.804367,56.874779 176.445929,55.379488 174.904890,62.841169"/>
    <poly id="262214891" type="building.yes" color="255,230,230" fill="1" layer="-1.00" shape="131.063906,198.456082 136.430029,199.083643 137.282957,191.871522 131.916833,191.243961 131.063906,198.456082"/>