<?xml version="1.0" encoding="UTF-8"?>

<!-- generated on 2025-09-26 19:56:08.407354 by randomTrips.py v1_24_0+0000-b72eb3fabc8
<configuration>
    <net-file value="C:/Users/kgaqu/OneDrive/Documents/4th Year/Capstone 2/v10/backend/networks/bayanan_area/bayanan_area.net.xml"/>
    <output-trip-file value="C:/Users/kgaqu/AppData/Local/Temp/tmpikmbmp9w.trips_3.xml"/>
    <vehicle-class value="motorcycle"/>
    <random-factor value="2.25"/>
    <fringe-factor value="2.0"/>
    <edge-permission value="motorcycle"/>
    <seed value="456"/>
    <random value="True"/>
    <min-distance value="300.0"/>
    <period value="435.4242208182999"/>
</configuration>
-->

<!-- generated on 2025-09-26 19:56:08 by Eclipse SUMO duarouter Version 1.24.0
<duarouterConfiguration xmlns:xsi="http://www.w3.org/2001/XMLSchema-instance" xsi:noNamespaceSchemaLocation="http://sumo.dlr.de/xsd/duarouterConfiguration.xsd">

    <input>
        <net-file value="C:/Users/kgaqu/OneDrive/Documents/4th Year/Capstone 2/v10/backend/networks/bayanan_area/bayanan_area.net.xml"/>
        <route-files value="C:/Users/kgaqu/AppData/Local/Temp/tmpikmbmp9w.trips_3.xml"/>
    </input>

    <output>
        <output-file value="routes.rou.xml"/>
        <alternatives-output value="NUL"/>
    </output>

    <time>
        <begin value="0"/>
        <end value="3600"/>
    </time>

    <report>
        <no-warnings value="true"/>
        <ignore-errors value="true"/>
        <no-step-log value="true"/>
    </report>

</duarouterConfiguration>
-->

<routes xmlns:xsi="http://www.w3.org/2001/XMLSchema-instance" xsi:noNamespaceSchemaLocation="http://sumo.dlr.de/xsd/routes_file.xsd">
    <vType id="motorcycle" vClass="motorcycle"/>
    <vehicle id="0" type="motorcycle" depart="0.00">
        <route edges="665787524 -665787530"/>
    </vehicle>
    <vehicle id="1" type="motorcycle" depart="435.42">
        <route edges="130049554#0 130048903#0 -665515504"/>
    </vehicle>
    <vehicle id="2" type="motorcycle" depart="870.85">
        <route edges="130049554#0 130048903#0 -665515504"/>
    </vehicle>
    <vehicle id="3" type="motorcycle" depart="1306.27">
        <route edges="665787524 795097767#0"/>
    </vehicle>
    <vehicle id="4" type="motorcycle" depart="1741.70">
        <route edges="-130048902#1 130048903#0 -665515504"/>
    </vehicle>
    <vehicle id="5" type="motorcycle" depart="2177.12">
        <route edges="130049554#0 665787533"/>
    </vehicle>
    <vehicle id="6" type="motorcycle" depart="2612.55">
        <route edges="130049554#0 130048903#0 -665515504"/>
    </vehicle>
    <vehicle id="7" type="motorcycle" depart="3047.97">
        <route edges="-130048902#1 795097767#0"/>
    </vehicle>
    <vehicle id="8" type="motorcycle" depart="3483.39">
        <route edges="-130048902#1 130048903#0 129113596#0"/>
    </vehicle>
</routes>
