<?xml version="1.0" encoding="UTF-8"?>

<!-- generated on 2025-09-17 21:58:04 by Eclipse SUMO netedit Version 1.24.0
-->

<additional xmlns:xsi="http://www.w3.org/2001/XMLSchema-instance" xsi:noNamespaceSchemaLocation="http://sumo.dlr.de/xsd/additional_file.xsd">
    <!-- Shapes -->
    <poly id="1041689734" type="amenity.university" color="237,199,199" fill="1" layer="-2.00" shape="193.582130,215.152594 180.459664,121.255307 306.850180,82.982514 365.851139,81.247024 368.338987,67.281005 402.869718,66.192088 402.280725,33.505924 27.457202,29.450946 16.414691,237.128545 138.467304,298.162312 204.499927,272.991432 193.582130,215.152594"/>
    <poly id="1137053423" type="amenity.school" color="237,199,199" fill="1" layer="-2.00" shape="133.598759,337.016457 141.546921,319.627006 159.639349,312.562264 161.966645,313.482486 161.858274,342.876913 144.635972,342.165099 133.598759,337.016457"/>
    <poly id="1154416427" type="building.house" color="255,230,230" fill="1" layer="-1.00" shape="-32.855115,164.177795 -39.915061,175.849011 -48.373409,170.799482 -46.140522,167.116716 -51.746901,163.768523 -46.919845,155.780069 -32.855115,164.177795"/>
    <poly id="1174525586" type="building.yes" color="255,230,230" fill="1" layer="-1.00" shape="519.654410,344.415568 535.664209,350.782347 545.788562,325.671478 529.778752,319.304691 519.654410,344.415568"/>
    <poly id="1174525587" type="building.yes" color="255,230,230" fill="1" layer="-1.00" shape="499.524489,338.107093 513.566378,341.480962 516.481709,329.514302 502.044320,326.553373 499.524489,338.107093"/>
    <poly id="1174525588" type="building.yes" color="255,230,230" fill="1" layer="-1.00" shape="502.044320,326.553373 518.425371,326.055470 520.483137,318.390254 514.465630,318.575865 514.389363,316.031171 501.739634,316.418859 502.044320,326.553373"/>
    <poly id="146424616" type="amenity.place_of_worship" color="237,199,199" fill="1" layer="-1.00" shape="172.383252,398.970642 186.917807,398.256341 185.262383,364.550294 170.727710,365.253527 172.383252,398.970642"/>
    <poly id="14936832" type="landuse.residential" color="235,235,227" fill="1" layer="-3.00" shape="612.313212,23.296451"/>
    <poly id="183541954" type="building.school" color="255,230,230" fill="1" layer="-1.00" shape="168.322470,425.411772 126.255621,426.899351 125.640523,409.695849 129.015805,409.577638 167.707402,408.208272 168.322470,425.411772"/>
    <poly id="183541965" type="building.school" color="255,230,230" fill="1" layer="-1.00" shape="166.402580,356.714760 149.818143,357.391755 150.916359,384.152742 167.500778,383.475745 166.402580,356.714760"/>
    <poly id="183543982" type="amenity.police" color="237,199,199" fill="1" layer="-1.00" shape="96.230421,361.304685 97.538820,350.624761 88.878393,349.572098 87.540266,360.551089 81.430046,360.007211 80.615953,369.244103 95.416225,370.530509 96.230421,361.304685"/>
    <poly id="183543982#1" type="building.public" color="255,230,230" fill="1" layer="-1.00" shape="96.230421,361.304685 97.538820,350.624761 88.878393,349.572098 87.540266,360.551089 81.430046,360.007211 80.615953,369.244103 95.416225,370.530509 96.230421,361.304685"/>
    <poly id="2443733" type="landuse.grass" color="194,194,130" fill="1" layer="-3.00" shape="168.510699,352.335902 168.758328,355.963642 169.759447,382.725480 170.635187,406.267976 193.946926,405.166654 192.847186,364.727097 200.470076,364.328094 200.279651,356.162456 200.177383,350.663146 168.510699,352.335902"/>
    <poly id="247684673" type="building.commercial" color="255,230,230" fill="1" layer="-1.00" shape="330.950741,29.185368 379.301578,29.524416 379.519003,-0.999737 331.168107,-1.338794 330.950741,29.185368"/>
    <poly id="247684673#1" type="shop.supermarket" color="237,199,255" fill="1" layer="-1.00" shape="330.950741,29.185368 379.301578,29.524416 379.519003,-0.999737 331.168107,-1.338794 330.950741,29.185368"/>
    <poly id="247684676" type="leisure.sports_centre" color="207,245,201" fill="1" layer="-2.00" shape="125.478211,67.300877 178.643499,66.800395 178.318706,32.296914 125.153344,32.797388 125.478211,67.300877"/>
    <poly id="247684678" type="leisure.swimming_pool" color="207,245,201" fill="1" layer="-2.00" shape="104.927897,65.976441 104.663254,42.008033 122.762364,41.815730 123.016106,65.773165 104.927897,65.976441"/>
    <poly id="247684679" type="leisure.pitch" color="207,245,201" fill="1" layer="-2.00" shape="182.068187,66.161623 212.870688,65.536811 212.953495,31.992569 182.536536,32.304116 182.068187,66.161623"/>
    <poly id="247684679#1" type="sport.tennis" color="79,230,125" fill="1" layer="-2.00" shape="182.068187,66.161623 212.870688,65.536811 212.953495,31.992569 182.536536,32.304116 182.068187,66.161623"/>
    <poly id="247684680" type="building.university" color="255,230,230" fill="1" layer="-1.00" shape="215.150748,61.078984 246.742501,61.885966 247.210612,43.953618 215.618836,43.146632 215.150748,61.078984"/>
    <poly id="247684681" type="building.university" color="255,230,230" fill="1" layer="-1.00" shape="253.491671,79.898777 283.653480,80.021156 290.828466,71.602690 288.824332,60.808021 247.965034,59.838932 248.272544,72.740134 253.428383,72.694839 253.491671,79.898777"/>
    <poly id="247684683" type="building.university" color="255,230,230" fill="1" layer="-1.00" shape="121.062380,102.443649 159.996619,101.625548 159.514558,78.688271 120.580282,79.506368 121.062380,102.443649"/>
    <poly id="247684686" type="building.roof" color="255,230,230" fill="1" layer="-1.00" shape="512.471085,315.007727 511.806814,295.856930 480.501580,296.928496 481.165875,316.079296 512.471085,315.007727"/>
    <poly id="247684686#1" type="leisure.sports_centre" color="207,245,201" fill="1" layer="-2.00" shape="512.471085,315.007727 511.806814,295.856930 480.501580,296.928496 481.165875,316.079296 512.471085,315.007727"/>
    <poly id="247684686#2" type="sport.multi" color="79,230,125" fill="1" layer="-2.00" shape="512.471085,315.007727 511.806814,295.856930 480.501580,296.928496 481.165875,316.079296 512.471085,315.007727"/>
    <poly id="247684687" type="amenity.fuel" color="237,199,199" fill="1" layer="-1.00" shape="389.298726,363.399608 389.533981,364.393554 409.525942,362.358782 408.965653,351.374365 388.727642,352.415284 389.298726,363.399608"/>
    <poly id="258638021" type="building.commercial" color="255,230,230" fill="1" layer="-1.00" shape="344.467324,349.804884 344.285799,346.331500 338.441845,346.626299 338.545726,348.628479 339.220034,361.537522 343.910256,361.297124 344.236477,367.735142 351.309560,367.374214 351.256794,366.279064 365.877356,365.530915 365.683493,361.880572 371.559801,361.585495 370.872489,348.422030 365.675510,348.689007 365.611278,347.516490 348.758750,348.372774 348.823275,349.578490 344.467324,349.804884"/>
    <poly id="258638026" type="building.house" color="255,230,230" fill="1" layer="-1.00" shape="443.001456,312.385994 451.735621,312.010515 451.140378,298.270773 442.406209,298.646252 443.001456,312.385994"/>
    <poly id="258638032" type="building.house" color="255,230,230" fill="1" layer="-1.00" shape="326.920194,415.264256 337.400417,415.957941 338.106250,405.438272 327.626023,404.744586 326.920194,415.264256"/>
    <poly id="258638035" type="building.house" color="255,230,230" fill="0" layer="-1.00" shape="295.731367,430.799379 283.801140,429.587244"/>
    <poly id="258638036" type="building.house" color="255,230,230" fill="1" layer="-1.00" shape="307.254505,313.223941 314.738938,313.025394 314.453901,302.680431 306.980252,302.878882 307.254505,313.223941"/>
    <poly id="258638041" type="building.house" color="255,230,230" fill="1" layer="-1.00" shape="432.658410,310.119568 440.778736,309.860143 440.394153,297.999907 432.273920,298.270398 432.658410,310.119568"/>
    <poly id="258638044" type="building.house" color="255,230,230" fill="1" layer="-1.00" shape="454.530311,309.650887 457.437713,310.300440 458.808544,304.256999 455.890356,303.607541 454.530311,309.650887"/>
    <poly id="258638049" type="building.house" color="255,230,230" fill="1" layer="-1.00" shape="520.231206,276.161567 537.359940,274.816043 536.838164,268.213745 519.709425,269.559268 520.231206,276.161567"/>
    <poly id="258638052" type="building.house" color="255,230,230" fill="1" layer="-1.00" shape="323.876806,291.066045 332.198775,290.428543 331.857593,285.971615 323.524836,286.609213 323.876806,291.066045"/>
    <poly id="258638061" type="building.house" color="255,230,230" fill="1" layer="-1.00" shape="331.853522,375.159069 335.863146,374.802912 335.120826,366.431857 331.111103,366.776948 331.853522,375.159069"/>
    <poly id="258638064" type="building.house" color="255,230,230" fill="1" layer="-1.00" shape="369.307939,372.937682 372.144401,372.879571 371.982894,365.543696 369.146431,365.601807 369.307939,372.937682"/>
    <poly id="258638066" type="building.house" color="255,230,230" fill="1" layer="-1.00" shape="260.025226,321.385637 268.185686,320.782731 267.622728,313.184776 259.451480,313.787777 260.025226,321.385637"/>
    <poly id="258638068" type="building.house" color="255,230,230" fill="1" layer="-1.00" shape="317.478593,301.945586 322.986729,301.487731 321.817318,287.476355 316.309179,287.934209 317.478593,301.945586"/>
    <poly id="258638070" type="building.house" color="255,230,230" fill="1" layer="-1.00" shape="453.733536,295.071837 458.286949,295.220002 458.507843,288.434113 453.965215,288.285854 453.733536,295.071837"/>
    <poly id="258638072" type="building.house" color="255,230,230" fill="1" layer="-1.00" shape="375.048899,390.394953 384.197867,390.580211 384.325937,384.282073 375.176869,384.085749 375.048899,390.394953"/>
    <poly id="258638078" type="building.house" color="255,230,230" fill="1" layer="-1.00" shape="437.550886,296.054977 441.616784,295.963949 441.456952,288.816198 437.391052,288.907226 437.550886,296.054977"/>
    <poly id="258638079" type="building.retail" color="255,230,230" fill="1" layer="-1.00" shape="373.488682,371.185611 380.186387,371.071458 379.853366,350.346253 373.155558,350.449340 373.488682,371.185611"/>
    <poly id="258638079#1" type="shop.convenience" color="237,199,255" fill="1" layer="-1.00" shape="373.488682,371.185611 380.186387,371.071458 379.853366,350.346253 373.155558,350.449340 373.488682,371.185611"/>
    <poly id="258638084" type="building.house" color="255,230,230" fill="1" layer="-1.00" shape="485.935047,259.696360 505.537338,256.270682 504.129734,248.292807 484.527437,251.718485 485.935047,259.696360"/>
    <poly id="258638087" type="building.house" color="255,230,230" fill="1" layer="-1.00" shape="317.767711,312.755320 322.748878,312.479163 322.199925,302.789459 317.208067,303.076777 317.767711,312.755320"/>
    <poly id="258638089" type="building.house" color="255,230,230" fill="1" layer="-1.00" shape="448.342882,295.395829 452.507313,295.469940 452.636962,288.120445 448.461841,288.057495 448.342882,295.395829"/>
    <poly id="258638103" type="building.house" color="255,230,230" fill="1" layer="-1.00" shape="372.554052,435.491970 384.344823,435.565490 384.397094,426.777986 372.617105,426.704371 372.554052,435.491970"/>
    <poly id="258638105" type="building.house" color="255,230,230" fill="1" layer="-1.00" shape="473.358067,261.001964 483.933480,260.245134 483.406251,253.023142 472.841622,253.779877 473.358067,261.001964"/>
    <poly id="258638125" type="building.house" color="255,230,230" fill="1" layer="-1.00" shape="360.627660,321.719262 364.876337,321.560214 364.514847,312.333671 360.266265,312.503785 360.627660,321.719262"/>
    <poly id="258638130" type="building.house" color="255,230,230" fill="1" layer="-1.00" shape="332.773294,388.995569 339.154990,388.518975 338.239695,376.419925 331.868685,376.885358 332.773294,388.995569"/>
    <poly id="258638131" type="building.house" color="255,230,230" fill="1" layer="-1.00" shape="374.981940,382.770511 385.578973,382.024507 385.112738,375.609854 374.515799,376.366923 374.981940,382.770511"/>
    <poly id="258638139" type="building.house" color="255,230,230" fill="0" layer="-1.00" shape="327.597439,432.190527 321.915973,431.332957"/>
    <poly id="258638140" type="building.house" color="255,230,230" fill="1" layer="-1.00" shape="327.481425,403.019433 337.529139,403.595184 338.194741,392.179457 328.147023,391.603705 327.481425,403.019433"/>
    <poly id="258638142" type="building.house" color="255,230,230" fill="1" layer="-1.00" shape="379.533461,317.602382 393.313410,318.167519 393.937069,303.199722 380.157111,302.634584 379.533461,317.602382"/>
    <poly id="258638146" type="building.school" color="255,230,230" fill="1" layer="-1.00" shape="384.091051,277.688659 391.213814,278.068786 391.556836,271.680228 384.444858,271.300005 384.091051,277.688659"/>
    <poly id="258638148" type="building.house" color="255,230,230" fill="0" layer="-1.00" shape="399.608038,433.074223 395.922687,432.276576"/>
    <poly id="258638149" type="building.house" color="255,230,230" fill="1" layer="-1.00" shape="353.124963,434.057926 358.408021,434.996470 359.549199,428.600899 354.276926,427.662260 353.124963,434.057926"/>
    <poly id="258638151" type="building.house" color="255,230,230" fill="1" layer="-1.00" shape="373.530220,416.448488 382.116746,416.461614 382.132867,403.557576 373.546337,403.544449 373.530220,416.448488"/>
    <poly id="258638152" type="building.house" color="255,230,230" fill="1" layer="-1.00" shape="462.524336,271.654787 469.017326,270.336177 464.532879,248.551810 458.039884,249.870420 462.524336,271.654787"/>
    <poly id="258638153" type="building.roof" color="255,230,230" fill="1" layer="-1.00" shape="369.445556,267.004997 398.649285,268.607781 399.647654,250.858927 370.433118,249.256234 369.445556,267.004997"/>
    <poly id="258638153#1" type="leisure.sports_hall" color="207,245,201" fill="1" layer="-2.00" shape="369.445556,267.004997 398.649285,268.607781 399.647654,250.858927 370.433118,249.256234 369.445556,267.004997"/>
    <poly id="258638153#2" type="sport.multi" color="79,230,125" fill="1" layer="-2.00" shape="369.445556,267.004997 398.649285,268.607781 399.647654,250.858927 370.433118,249.256234 369.445556,267.004997"/>
    <poly id="258638157" type="building.house" color="255,230,230" fill="1" layer="-1.00" shape="436.197851,253.747404 453.474888,253.319067 453.270657,244.799423 435.993517,245.216693 436.197851,253.747404"/>
    <poly id="258638158" type="building.house" color="255,230,230" fill="1" layer="-1.00" shape="341.678298,403.160334 347.031714,403.511718 347.451777,397.299548 342.087573,396.948259 341.678298,403.160334"/>
    <poly id="258638160" type="building.house" color="255,230,230" fill="1" layer="-1.00" shape="366.587449,321.102514 378.238054,321.177270 378.278087,314.680703 366.627576,314.617013 366.587449,321.102514"/>
    <poly id="258638163" type="building.house" color="255,230,230" fill="1" layer="-1.00" shape="522.439512,283.191737 538.632176,282.120032 538.209515,275.749266 522.016847,276.820971 522.439512,283.191737"/>
    <poly id="258638165" type="building.house" color="255,230,230" fill="1" layer="-1.00" shape="303.081580,301.131373 307.771037,300.802442 307.117521,291.489928 302.428063,291.818859 303.081580,301.131373"/>
    <poly id="258638169" type="building.house" color="255,230,230" fill="1" layer="-1.00" shape="393.233339,395.038255 405.174356,395.021934 405.165614,382.970259 393.224591,382.986580 393.233339,395.038255"/>
    <poly id="258638171" type="building.house" color="255,230,230" fill="0" layer="-1.00" shape="369.604479,428.811390 362.450177,428.520086"/>
    <poly id="258638172" type="building.school" color="255,230,230" fill="1" layer="-1.00" shape="360.789410,277.494879 381.420743,278.243314 381.752006,269.287359 361.120666,268.538923 360.789410,277.494879"/>
    <poly id="258638173" type="building.house" color="255,230,230" fill="1" layer="-1.00" shape="471.048464,287.903494 482.400673,284.705147 480.052431,276.480993 468.700218,279.679340 471.048464,287.903494"/>
    <poly id="258638181" type="building.house" color="255,230,230" fill="1" layer="-1.00" shape="368.768286,310.260025 377.485157,310.371611 377.600012,301.340089 368.883138,301.228502 368.768286,310.260025"/>
    <poly id="258638182" type="building.house" color="255,230,230" fill="1" layer="-1.00" shape="267.795791,408.999730 278.457156,410.665679 280.235744,399.472570 269.574374,397.806620 267.795791,408.999730"/>
    <poly id="258638183" type="building.house" color="255,230,230" fill="1" layer="-1.00" shape="541.023611,264.536043 547.270076,263.396686 545.582345,254.226055 539.335878,255.365412 541.023611,264.536043"/>
    <poly id="258638190" type="building.house" color="255,230,230" fill="1" layer="-1.00" shape="317.331160,421.468436 325.469239,422.005622 325.821569,416.679391 317.683489,416.142205 317.331160,421.468436"/>
    <poly id="258638193" type="building.house" color="255,230,230" fill="1" layer="-1.00" shape="311.882561,378.355736 317.101107,378.088558 316.687031,370.245826 311.479269,370.512910 311.882561,378.355736"/>
    <poly id="258638194" type="building.house" color="255,230,230" fill="1" layer="-1.00" shape="472.026646,276.451837 480.042913,275.396530 478.322424,262.496676 470.306153,263.551983 472.026646,276.451837"/>
    <poly id="258638197" type="building.house" color="255,230,230" fill="1" layer="-1.00" shape="239.873469,400.989241 253.600921,402.949175 254.739930,395.081727 241.012570,393.132859 239.873469,400.989241"/>
    <poly id="258638198" type="building.house" color="255,230,230" fill="1" layer="-1.00" shape="389.456948,429.323184 397.032976,429.732527 397.218865,426.333385 389.642934,425.935108 389.456948,429.323184"/>
    <poly id="258638200" type="building.house" color="255,230,230" fill="1" layer="-1.00" shape="487.211023,282.172897 495.264217,280.408995 493.736499,273.494587 485.672614,275.269650 487.211023,282.172897"/>
    <poly id="258638201" type="building.house" color="255,230,230" fill="1" layer="-1.00" shape="272.685123,331.976014 280.545122,331.552820 279.901787,319.716983 272.052571,320.140082 272.685123,331.976014"/>
    <poly id="258638203" type="building.house" color="255,230,230" fill="1" layer="-1.00" shape="223.661029,399.803697 236.656868,400.751904 237.100615,394.782991 224.104676,393.823717 223.661029,399.803697"/>
    <poly id="258638205" type="amenity.place_of_worship" color="237,199,199" fill="1" layer="-1.00" shape="320.588746,385.848956 331.230867,385.323869 330.130138,363.166718 319.487909,363.680738 320.588746,385.848956"/>
    <poly id="258638205#1" type="building.church" color="255,230,230" fill="1" layer="-1.00" shape="320.588746,385.848956 331.230867,385.323869 330.130138,363.166718 319.487909,363.680738 320.588746,385.848956"/>
    <poly id="258638209" type="building.school" color="255,230,230" fill="1" layer="-1.00" shape="354.909861,263.912207 359.602337,263.926331 359.616714,258.193599 354.935121,258.190446 354.909861,263.912207"/>
    <poly id="258638216" type="building.house" color="255,230,230" fill="1" layer="-1.00" shape="312.349213,387.271487 317.934389,386.990021 317.571525,380.065385 311.986445,380.357917 312.349213,387.271487"/>
    <poly id="258638222" type="amenity.townhall" color="237,199,199" fill="1" layer="-1.00" shape="498.037280,334.578770 488.788993,332.911388 487.608136,337.248872 489.416891,340.541969 496.701515,342.160185 498.037280,334.578770"/>
    <poly id="258638222#1" type="building.public" color="255,230,230" fill="1" layer="-1.00" shape="498.037280,334.578770 488.788993,332.911388 487.608136,337.248872 489.416891,340.541969 496.701515,342.160185 498.037280,334.578770"/>
    <poly id="258638224" type="building.house" color="255,230,230" fill="1" layer="-1.00" shape="235.408393,323.737837 240.788647,323.458156 239.981924,307.761434 234.590880,308.041209 235.408393,323.737837"/>
    <poly id="258638227" type="building.house" color="255,230,230" fill="1" layer="-1.00" shape="234.107063,415.017304 239.801449,413.661378 237.158872,402.639918 231.464485,403.995844 234.107063,415.017304"/>
    <poly id="258638230" type="building.house" color="255,230,230" fill="1" layer="-1.00" shape="341.156815,419.931131 350.049920,420.461693 350.982159,405.015307 342.089048,404.484743 341.156815,419.931131"/>
    <poly id="258638231" type="building.house" color="255,230,230" fill="1" layer="-1.00" shape="342.797216,394.230658 353.238093,395.356302 353.987474,388.565767 343.546595,387.440122 342.797216,394.230658"/>
    <poly id="258638234" type="building.school" color="255,230,230" fill="1" layer="-1.00" shape="355.511354,256.248694 365.024771,256.165148 364.970448,249.979280 355.457029,250.062826 355.511354,256.248694"/>
    <poly id="258638237" type="building.house" color="255,230,230" fill="1" layer="-1.00" shape="444.458973,263.380467 454.624511,262.627222 454.185016,256.798875 444.019573,257.563186 444.458973,263.380467"/>
    <poly id="258638240" type="building.house" color="255,230,230" fill="1" layer="-1.00" shape="236.050297,336.636103 241.506343,336.388957 241.011378,325.481426 235.555330,325.728572 236.050297,336.636103"/>
    <poly id="258638241" type="building.house" color="255,230,230" fill="1" layer="-1.00" shape="481.605281,269.052607 489.845827,267.740799 488.705244,260.690192 480.464697,262.002000 481.605281,269.052607"/>
    <poly id="258638242" type="building.house" color="255,230,230" fill="1" layer="-1.00" shape="317.021459,324.813631 322.683221,324.653230 322.413930,314.872536 316.741283,315.021965 317.021459,324.813631"/>
    <poly id="258638243" type="building.house" color="255,230,230" fill="1" layer="-1.00" shape="309.036320,299.939183 314.792538,299.479148 314.054389,290.355513 308.287479,290.826709 309.036320,299.939183"/>
    <poly id="258638245" type="building.house" color="255,230,230" fill="1" layer="-1.00" shape="432.339516,295.912593 436.331078,295.955018 436.435172,285.695178 432.443609,285.652753 432.339516,295.912593"/>
    <poly id="258638247" type="building.house" color="255,230,230" fill="1" layer="-1.00" shape="344.065448,312.646070 350.624308,311.459650 348.652854,300.697894 342.093991,301.884314 344.065448,312.646070"/>
    <poly id="258638250" type="building.house" color="255,230,230" fill="1" layer="-1.00" shape="384.035564,300.851970 406.538128,300.953184 406.579922,290.970559 384.077348,290.869345 384.035564,300.851970"/>
    <poly id="258638251" type="building.house" color="255,230,230" fill="1" layer="-1.00" shape="519.075781,266.189455 537.943726,263.899060 536.817455,254.789903 517.949600,257.091364 519.075781,266.189455"/>
    <poly id="258638255" type="building.house" color="255,230,230" fill="1" layer="-1.00" shape="289.875729,400.295354 307.065715,402.247030 307.827036,395.589188 290.637045,393.637511 289.875729,400.295354"/>
    <poly id="258638257" type="building.house" color="255,230,230" fill="1" layer="-1.00" shape="324.074471,297.604794 330.101511,297.275185 329.933978,294.166883 323.906938,294.496492 324.074471,297.604794"/>
    <poly id="258638258" type="building.house" color="255,230,230" fill="1" layer="-1.00" shape="299.196372,393.008974 305.729851,392.619572 305.263007,384.910106 298.729526,385.299507 299.196372,393.008974"/>
    <poly id="258638262" type="building.house" color="255,230,230" fill="1" layer="-1.00" shape="260.124595,332.695048 269.096346,332.350616 268.707511,322.471368 259.735756,322.815799 260.124595,332.695048"/>
    <poly id="258638263" type="building.house" color="255,230,230" fill="1" layer="-1.00" shape="493.668589,270.673150 505.379368,268.998886 504.093137,260.101401 492.382257,261.764600 493.668589,270.673150"/>
    <poly id="258638268" type="building.house" color="255,230,230" fill="1" layer="-1.00" shape="344.696554,293.616683 359.278482,289.692703 356.792600,280.540151 342.210569,284.453066 344.696554,293.616683"/>
    <poly id="258638272" type="building.house" color="255,230,230" fill="1" layer="-1.00" shape="384.853500,409.963498 394.379683,410.112246 394.461210,404.655594 384.945811,404.506752 384.853500,409.963498"/>
    <poly id="258638275" type="building.house" color="255,230,230" fill="1" layer="-1.00" shape="302.316004,420.272326 314.541639,421.957747 316.175355,410.234709 303.949715,408.549286 302.316004,420.272326"/>
    <poly id="258638276" type="building.house" color="255,230,230" fill="1" layer="-1.00" shape="208.830370,318.958133 220.736938,318.698561 220.293019,298.870727 208.386538,299.141364 208.830370,318.958133"/>
    <poly id="258638277" type="building.house" color="255,230,230" fill="1" layer="-1.00" shape="328.027399,423.421836 332.986294,424.296822 333.983752,418.732522 329.024953,417.868601 328.027399,423.421836"/>
    <poly id="258638278" type="building.commercial" color="255,230,230" fill="1" layer="-1.00" shape="291.717254,380.303578 303.962917,379.354921 301.995763,354.350141 289.760873,355.298703 291.717254,380.303578"/>
    <poly id="258638281" type="building.house" color="255,230,230" fill="1" layer="-1.00" shape="429.066867,280.691270 443.661921,279.489660 443.191133,273.783323 428.596076,274.984933 429.066867,280.691270"/>
    <poly id="258638283" type="building.house" color="255,230,230" fill="1" layer="-1.00" shape="272.576415,317.147440 280.466541,316.469445 278.681684,296.254993 270.791649,296.944053 272.576415,317.147440"/>
    <poly id="258638285" type="building.house" color="255,230,230" fill="1" layer="-1.00" shape="281.946361,333.886674 290.418350,333.137169 289.533652,323.295478 281.050970,324.056144 281.946361,333.886674"/>
    <poly id="258638286" type="building.house" color="255,230,230" fill="1" layer="-1.00" shape="442.950674,295.542767 446.542856,295.555499 446.578827,288.594165 442.975762,288.570462 442.950674,295.542767"/>
    <poly id="258638288" type="building.school" color="255,230,230" fill="1" layer="-1.00" shape="360.942253,264.191234 366.573612,264.252449 366.655429,257.600579 361.013185,257.528394 360.942253,264.191234"/>
    <poly id="258638290" type="building.house" color="255,230,230" fill="0" layer="-1.00" shape="394.044544,432.138133 388.342579,431.402463"/>
    <poly id="258638292" type="building.house" color="255,230,230" fill="1" layer="-1.00" shape="234.823299,305.028993 258.515853,304.289605 258.202420,294.398627 234.509955,295.149080 234.823299,305.028993"/>
    <poly id="258638294" type="building.house" color="255,230,230" fill="1" layer="-1.00" shape="272.187235,433.684407 280.224938,435.074604 281.375716,428.546140 273.327127,427.144971 272.187235,433.684407"/>
    <poly id="258638297" type="building.retail" color="255,230,230" fill="1" layer="-1.00" shape="433.667393,341.496163 447.553753,330.838657 453.911571,325.183041 456.131016,316.276916 434.283715,312.174791 433.667393,341.496163"/>
    <poly id="258638298" type="building.house" color="255,230,230" fill="1" layer="-1.00" shape="315.497119,326.885448 314.775782,318.447808 305.031604,319.274880 306.510337,336.570383 316.254605,335.754376 316.230019,335.411521 325.921912,334.773047 325.361594,326.245458 315.497119,326.885448"/>
    <poly id="258638299" type="building.house" color="255,230,230" fill="1" layer="-1.00" shape="381.588761,328.086733 406.628088,328.398069 406.745479,319.654263 406.540445,319.644996 406.867831,305.332744 395.172424,305.070231 394.846113,319.504211 381.695357,319.343020 381.588761,328.086733"/>
    <poly id="258638300" type="building.house" color="255,230,230" fill="1" layer="-1.00" shape="356.325854,403.031681 355.718842,416.206515 370.222381,416.875944 371.119549,397.434750 356.616097,396.776385 356.525147,398.702809 350.066296,397.763524 349.434976,402.029791 356.325854,403.031681"/>
    <poly id="258639334" type="building.house" color="255,230,230" fill="1" layer="-1.00" shape="224.781716,371.440664 231.413541,371.194248 231.187867,365.153749 224.556040,365.400165 224.781716,371.440664"/>
    <poly id="258639335" type="building.house" color="255,230,230" fill="1" layer="-1.00" shape="260.274940,336.301508 269.311406,335.956508 269.211791,333.212814 260.175323,333.557814 260.274940,336.301508"/>
    <poly id="258639336" type="building.house" color="255,230,230" fill="1" layer="-1.00" shape="212.820114,389.983104 227.404625,390.043066 227.448197,381.499101 212.863681,381.439138 212.820114,389.983104"/>
    <poly id="258639339" type="building.house" color="255,230,230" fill="1" layer="-1.00" shape="253.528609,366.484655 267.102726,365.723509 266.426830,353.865823 252.852707,354.626968 253.528609,366.484655"/>
    <poly id="258639342" type="building.house" color="255,230,230" fill="1" layer="-1.00" shape="229.053255,361.608993 246.279602,360.328802 245.730534,353.084863 228.504183,354.365054 229.053255,361.608993"/>
    <poly id="258639345" type="building.house" color="255,230,230" fill="1" layer="-1.00" shape="210.583283,361.306505 221.844890,360.078718 221.012458,352.505264 209.750847,353.733051 210.583283,361.306505"/>
    <poly id="258639346" type="building.house" color="255,230,230" fill="1" layer="-1.00" shape="237.764060,372.079121 248.260623,370.946604 247.497583,363.903747 237.000920,365.025199 237.764060,372.079121"/>
    <poly id="258639348" type="building.house" color="255,230,230" fill="1" layer="-1.00" shape="212.640461,379.360538 222.953657,378.229621 221.266540,363.005441 210.953240,364.125292 212.640461,379.360538"/>
    <poly id="258639352" type="building.commercial" color="255,230,230" fill="1" layer="-1.00" shape="270.138560,360.119162 286.002551,359.703113 285.724981,348.981810 269.860983,349.397858 270.138560,360.119162"/>
    <poly id="258639360" type="building.house" color="255,230,230" fill="1" layer="-1.00" shape="389.562262,381.126317 403.377643,380.816866 403.214396,373.281805 389.388224,373.591350 389.562262,381.126317"/>
    <poly id="258639362" type="building.house" color="255,230,230" fill="1" layer="-1.00" shape="260.200227,392.864653 268.537908,392.791393 268.467611,384.790704 260.129927,384.863964 260.200227,392.864653"/>