<?xml version="1.0" encoding="UTF-8"?>

<!-- generated on 2025-09-26 19:57:04.293067 by randomTrips.py v1_24_0+0000-b72eb3fabc8
<configuration>
    <net-file value="C:/Users/kgaqu/OneDrive/Documents/4th Year/Capstone 2/v10/backend/networks/perpetual_molino_area/perpetual_molino_area.net.xml"/>
    <output-trip-file value="C:/Users/kgaqu/AppData/Local/Temp/tmp9vvgk3qz.trips_3.xml"/>
    <vehicle-class value="motorcycle"/>
    <random-factor value="2.25"/>
    <fringe-factor value="2.0"/>
    <edge-permission value="motorcycle"/>
    <seed value="456"/>
    <random value="True"/>
    <min-distance value="300.0"/>
    <period value="439.5695014399514"/>
</configuration>
-->

<!-- generated on 2025-09-26 19:57:04 by Eclipse SUMO duarouter Version 1.24.0
<duarouterConfiguration xmlns:xsi="http://www.w3.org/2001/XMLSchema-instance" xsi:noNamespaceSchemaLocation="http://sumo.dlr.de/xsd/duarouterConfiguration.xsd">

    <input>
        <net-file value="C:/Users/kgaqu/OneDrive/Documents/4th Year/Capstone 2/v10/backend/networks/perpetual_molino_area/perpetual_molino_area.net.xml"/>
        <route-files value="C:/Users/kgaqu/AppData/Local/Temp/tmp9vvgk3qz.trips_3.xml"/>
    </input>

    <output>
        <output-file value="routes.rou.xml"/>
        <alternatives-output value="NUL"/>
    </output>

    <time>
        <begin value="0"/>
        <end value="3600"/>
    </time>

    <report>
        <no-warnings value="true"/>
        <ignore-errors value="true"/>
        <no-step-log value="true"/>
    </report>

</duarouterConfiguration>
-->

<routes xmlns:xsi="http://www.w3.org/2001/XMLSchema-instance" xsi:noNamespaceSchemaLocation="http://sumo.dlr.de/xsd/routes_file.xsd">
    <vType id="motorcycle" vClass="motorcycle"/>
    <vehicle id="0" type="motorcycle" depart="0.00">
        <route edges="-282194769#1 -183541938#7"/>
    </vehicle>
    <vehicle id="1" type="motorcycle" depart="439.57">
        <route edges="690977719#0 183543973#0"/>
    </vehicle>
    <vehicle id="2" type="motorcycle" depart="879.14">
        <route edges="109973440 183543973#0"/>
    </vehicle>
    <vehicle id="3" type="motorcycle" depart="1318.71">
        <route edges="109973440 183543973#0"/>
    </vehicle>
    <vehicle id="4" type="motorcycle" depart="1758.28">
        <route edges="109973440 -690977716#1"/>
    </vehicle>
    <vehicle id="5" type="motorcycle" depart="2197.85">
        <route edges="-282194769#1 -690977716#1"/>
    </vehicle>
    <vehicle id="6" type="motorcycle" depart="2637.42">
        <route edges="690977719#0 183543973#0"/>
    </vehicle>
    <vehicle id="7" type="motorcycle" depart="3076.99">
        <route edges="109973440 183543973#0"/>
    </vehicle>
    <vehicle id="8" type="motorcycle" depart="3516.56">
        <route edges="-282194769#1 -183541938#7"/>
    </vehicle>
</routes>
