<?xml version="1.0" encoding="UTF-8"?>

<!-- generated on 2025-09-03 00:53:05 by Eclipse SUMO netconvert Version 1.24.0
<netconvertConfiguration xmlns:xsi="http://www.w3.org/2001/XMLSchema-instance" xsi:noNamespaceSchemaLocation="http://sumo.dlr.de/xsd/netconvertConfiguration.xsd">

    <input>
        <type-files value="${SUMO_HOME}\data\typemap\osmNetconvert.typ.xml,${SUMO_HOME}\data\typemap\osmNetconvertUrbanDe.typ.xml,${SUMO_HOME}\data\typemap\osmNetconvertPedestrians.typ.xml,${SUMO_HOME}\data\typemap\osmNetconvertBicycle.typ.xml"/>
        <osm-files value="osm_bbox.osm.xml.gz"/>
    </input>

    <output>
        <output-file value="osm.net.xml.gz"/>
        <output.street-names value="true"/>
        <output.original-names value="true"/>
    </output>

    <projection>
        <proj.utm value="true"/>
    </projection>

    <processing>
        <geometry.remove value="true"/>
        <roundabouts.guess value="true"/>
    </processing>

    <tls_building>
        <tls.discard-simple value="true"/>
        <tls.join value="true"/>
        <tls.guess-signals value="true"/>
        <tls.default-type value="actuated"/>
    </tls_building>

    <ramp_guessing>
        <ramps.guess value="true"/>
    </ramp_guessing>

    <edge_removal>
        <keep-edges.by-vclass value="passenger"/>
    </edge_removal>

    <junctions>
        <junctions.join value="true"/>
        <junctions.corner-detail value="5"/>
    </junctions>

    <pedestrian>
        <crossings.guess value="true"/>
    </pedestrian>

    <formats>
        <osm.bike-access value="true"/>
        <osm.sidewalks value="true"/>
    </formats>

</netconvertConfiguration>
-->

<net version="1.20" junctionCornerDetail="5" walkingareas="true" limitTurnSpeed="5.50" xmlns:xsi="http://www.w3.org/2001/XMLSchema-instance" xsi:noNamespaceSchemaLocation="http://sumo.dlr.de/xsd/net_file.xsd">

    <location netOffset="-281253.71,-1592799.13" convBoundary="0.00,0.00,991.66,1103.14" origBoundary="120.971140,14.398887,120.980369,14.409047" projParameter="+proj=utm +zone=51 +ellps=WGS84 +datum=WGS84 +units=m +no_defs"/>

    <type id="highway.primary" priority="12" numLanes="2" speed="13.89" disallow="pedestrian tram rail_urban rail rail_electric rail_fast ship container cable_car subway aircraft wheelchair scooter drone" oneway="0" sidewalkWidth="3.00"/>
    <type id="highway.secondary" priority="11" numLanes="1" speed="13.89" disallow="pedestrian tram rail_urban rail rail_electric rail_fast ship container cable_car subway aircraft wheelchair scooter drone" oneway="0" sidewalkWidth="3.00"/>
    <type id="highway.tertiary" priority="10" numLanes="1" speed="13.89" disallow="pedestrian tram rail_urban rail rail_electric rail_fast ship container cable_car subway aircraft wheelchair scooter drone" oneway="0" sidewalkWidth="3.00"/>

    <edge id=":1202984102_0" function="internal">
        <lane id=":1202984102_0_0" index="0" disallow="pedestrian tram rail_urban rail rail_electric rail_fast ship container cable_car subway aircraft wheelchair scooter drone" speed="3.65" length="4.67" shape="696.96,-0.26 697.95,-1.31 698.80,-1.58 699.52,-1.05 700.12,0.26"/>
    </edge>
    <edge id=":325280455_0" function="internal">
        <lane id=":325280455_0_0" index="0" disallow="pedestrian tram rail_urban rail rail_electric rail_fast ship container cable_car subway aircraft wheelchair scooter drone" speed="16.67" length="14.36" shape="670.37,735.71 664.20,722.87"/>
        <lane id=":325280455_0_1" index="1" disallow="pedestrian tram rail_urban rail rail_electric rail_fast ship container cable_car subway aircraft wheelchair scooter drone" speed="16.67" length="14.36" shape="673.30,734.40 667.02,721.35"/>
    </edge>
    <edge id=":325280455_2" function="internal">
        <lane id=":325280455_2_0" index="0" disallow="pedestrian tram rail_urban rail rail_electric rail_fast ship container cable_car subway aircraft wheelchair scooter drone" speed="9.07" length="3.00" shape="673.30,734.40 672.69,731.46"/>
    </edge>
    <edge id=":325280455_3" function="internal">
        <lane id=":325280455_3_0" index="0" disallow="pedestrian tram rail_urban rail rail_electric rail_fast ship container cable_car subway aircraft wheelchair scooter drone" speed="3.65" length="1.44" shape="673.30,734.40 673.54,732.98"/>
    </edge>
    <edge id=":325280455_12" function="internal">
        <lane id=":325280455_12_0" index="0" disallow="pedestrian tram rail_urban rail rail_electric rail_fast ship container cable_car subway aircraft wheelchair scooter drone" speed="9.07" length="17.91" shape="672.69,731.46 672.35,729.84 673.91,726.01 677.99,722.91 684.57,720.54"/>
    </edge>
    <edge id=":325280455_13" function="internal">
        <lane id=":325280455_13_0" index="0" disallow="pedestrian tram rail_urban rail rail_electric rail_fast ship container cable_car subway aircraft wheelchair scooter drone" speed="3.65" length="3.23" shape="673.54,732.98 674.10,732.29 675.00,732.33 676.22,733.10"/>
    </edge>
    <edge id=":325280455_4" function="internal">
        <lane id=":325280455_4_0" index="0" disallow="pedestrian tram rail_urban rail rail_electric rail_fast ship container cable_car subway aircraft wheelchair scooter drone" speed="6.17" length="9.05" shape="685.36,723.64 683.02,724.61 681.68,726.08 681.36,728.04 682.06,730.48"/>
    </edge>
    <edge id=":325280455_5" function="internal">
        <lane id=":325280455_5_0" index="0" disallow="pedestrian tram rail_urban rail rail_electric rail_fast ship container cable_car subway aircraft wheelchair scooter drone" speed="10.29" length="19.69" shape="685.36,723.64 678.57,724.94 673.25,725.00 669.40,723.80 667.02,721.35"/>
    </edge>
    <edge id=":325280455_6" function="internal">
        <lane id=":325280455_6_0" index="0" disallow="pedestrian tram rail_urban rail rail_electric rail_fast ship container cable_car subway aircraft wheelchair scooter drone" speed="3.65" length="1.44" shape="685.36,723.64 684.00,723.16"/>
    </edge>
    <edge id=":325280455_14" function="internal">
        <lane id=":325280455_14_0" index="0" disallow="pedestrian tram rail_urban rail rail_electric rail_fast ship container cable_car subway aircraft wheelchair scooter drone" speed="3.65" length="3.23" shape="684.00,723.16 683.42,722.48 683.61,721.61 684.57,720.54"/>
    </edge>
    <edge id=":325280455_7" function="internal">
        <lane id=":325280455_7_0" index="0" disallow="pedestrian tram rail_urban rail rail_electric rail_fast ship container cable_car subway aircraft wheelchair scooter drone" speed="8.45" length="13.01" shape="672.65,718.33 674.33,720.20 676.88,721.19 680.29,721.31 684.57,720.54"/>
    </edge>
    <edge id=":325280455_8" function="internal">
        <lane id=":325280455_8_0" index="0" disallow="pedestrian tram rail_urban rail rail_electric rail_fast ship container cable_car subway aircraft wheelchair scooter drone" speed="16.67" length="15.15" shape="672.65,718.33 675.22,722.10 677.54,724.31 679.78,726.58 682.06,730.48"/>
        <lane id=":325280455_8_1" index="1" disallow="pedestrian tram rail_urban rail rail_electric rail_fast ship container cable_car subway aircraft wheelchair scooter drone" speed="16.67" length="15.15" shape="669.83,719.84 672.36,723.55 674.67,725.72 676.88,727.94 679.14,731.79"/>
        <lane id=":325280455_8_2" index="2" disallow="pedestrian tram rail_urban rail rail_electric rail_fast ship container cable_car subway aircraft wheelchair scooter drone" speed="16.67" length="15.15" shape="669.83,719.84 676.22,733.10"/>
    </edge>
    <edge id=":325280455_11" function="internal">
        <lane id=":325280455_11_0" index="0" disallow="pedestrian tram rail_urban rail rail_electric rail_fast ship container cable_car subway aircraft wheelchair scooter drone" speed="3.65" length="1.44" shape="669.83,719.84 669.70,721.28"/>
    </edge>
    <edge id=":325280455_15" function="internal">
        <lane id=":325280455_15_0" index="0" disallow="pedestrian tram rail_urban rail rail_electric rail_fast ship container cable_car subway aircraft wheelchair scooter drone" speed="3.65" length="3.23" shape="669.70,721.28 669.18,722.01 668.29,722.03 667.02,721.35"/>
    </edge>
    <edge id=":3277870002_0" function="internal">
        <lane id=":3277870002_0_0" index="0" disallow="pedestrian tram rail_urban rail rail_electric rail_fast ship container cable_car subway aircraft wheelchair scooter drone" speed="3.65" length="4.67" shape="103.11,808.71 102.83,807.29 103.12,806.45 103.97,806.17 105.38,806.46"/>
    </edge>
    <edge id=":33616576_0" function="internal">
        <lane id=":33616576_0_0" index="0" disallow="pedestrian tram rail_urban rail rail_electric rail_fast ship container cable_car subway aircraft wheelchair scooter drone" speed="3.65" length="4.67" shape="988.18,593.40 989.53,592.89 990.42,593.04 990.83,593.83 990.77,595.27"/>
    </edge>
    <edge id=":542903486_0" function="internal">
        <lane id=":542903486_0_0" index="0" disallow="pedestrian tram rail_urban rail rail_electric rail_fast ship container cable_car subway aircraft wheelchair scooter drone" speed="3.65" length="4.67" shape="671.74,1104.19 670.35,1104.57 669.49,1104.35 669.14,1103.53 669.32,1102.10"/>
    </edge>
    <edge id=":9402647536_0" function="internal">
        <lane id=":9402647536_0_0" index="0" disallow="pedestrian tram rail_urban rail rail_electric rail_fast ship container cable_car subway aircraft wheelchair scooter drone" speed="3.65" length="4.67" shape="911.28,137.60 912.08,136.40 912.89,136.00 913.68,136.41 914.48,137.61"/>
    </edge>
    <edge id=":9402647552_0" function="internal">
        <lane id=":9402647552_0_0" index="0" disallow="pedestrian tram rail_urban rail rail_electric rail_fast ship container cable_car subway aircraft wheelchair scooter drone" speed="3.65" length="4.67" shape="992.67,589.96 993.10,591.34 992.90,592.21 992.09,592.58 990.65,592.45"/>
    </edge>
    <edge id=":cluster_27148807_27310079_0" function="internal">
        <lane id=":cluster_27148807_27310079_0_0" index="0" disallow="pedestrian tram rail_urban rail rail_electric rail_fast ship container cable_car subway aircraft wheelchair scooter drone" speed="16.67" length="14.14" shape="290.84,924.93 277.55,929.66"/>
        <lane id=":cluster_27148807_27310079_0_1" index="1" disallow="pedestrian tram rail_urban rail rail_electric rail_fast ship container cable_car subway aircraft wheelchair scooter drone" speed="16.67" length="14.14" shape="289.78,921.91 276.46,926.65"/>
        <lane id=":cluster_27148807_27310079_0_2" index="2" disallow="pedestrian tram rail_urban rail rail_electric rail_fast ship container cable_car subway aircraft wheelchair scooter drone" speed="16.67" length="14.14" shape="288.73,918.88 275.37,923.64"/>
    </edge>
    <edge id=":cluster_27148807_27310079_3" function="internal">
        <lane id=":cluster_27148807_27310079_3_0" index="0" disallow="pedestrian tram rail_urban rail rail_electric rail_fast ship container cable_car subway aircraft wheelchair scooter drone" speed="9.33" length="2.85" shape="288.73,918.88 285.88,919.15"/>
    </edge>
    <edge id=":cluster_27148807_27310079_4" function="internal">
        <lane id=":cluster_27148807_27310079_4_0" index="0" disallow="pedestrian tram rail_urban rail rail_electric rail_fast ship container cable_car subway aircraft wheelchair scooter drone" speed="3.65" length="1.44" shape="288.73,918.88 287.33,918.53"/>
    </edge>
    <edge id=":cluster_27148807_27310079_14" function="internal">
        <lane id=":cluster_27148807_27310079_14_0" index="0" disallow="pedestrian tram rail_urban rail rail_electric rail_fast ship container cable_car subway aircraft wheelchair scooter drone" speed="9.33" length="16.63" shape="285.88,919.15 284.84,919.24 281.33,917.47 278.19,913.56 275.43,907.53"/>
    </edge>
    <edge id=":cluster_27148807_27310079_15" function="internal">
        <lane id=":cluster_27148807_27310079_15_0" index="0" disallow="pedestrian tram rail_urban rail rail_electric rail_fast ship container cable_car subway aircraft wheelchair scooter drone" speed="3.65" length="3.23" shape="287.33,918.53 286.69,917.90 286.80,917.01 287.67,915.86"/>
    </edge>
    <edge id=":cluster_27148807_27310079_5" function="internal">
        <lane id=":cluster_27148807_27310079_5_0" index="0" disallow="pedestrian tram rail_urban rail rail_electric rail_fast ship container cable_car subway aircraft wheelchair scooter drone" speed="6.51" length="8.96" shape="278.44,906.44 279.59,908.60 281.16,909.89 283.15,910.29 285.56,909.82"/>
    </edge>
    <edge id=":cluster_27148807_27310079_6" function="internal">
        <lane id=":cluster_27148807_27310079_6_0" index="0" disallow="pedestrian tram rail_urban rail rail_electric rail_fast ship container cable_car subway aircraft wheelchair scooter drone" speed="9.92" length="22.38" shape="278.44,906.44 280.66,914.16 281.06,920.11 279.66,924.27 276.46,926.65"/>
        <lane id=":cluster_27148807_27310079_6_1" index="1" disallow="pedestrian tram rail_urban rail rail_electric rail_fast ship container cable_car subway aircraft wheelchair scooter drone" speed="9.30" length="19.52" shape="278.44,906.44 280.18,912.85 280.25,917.85 278.64,921.45 275.37,923.64"/>
    </edge>
    <edge id=":cluster_27148807_27310079_8" function="internal">
        <lane id=":cluster_27148807_27310079_8_0" index="0" disallow="pedestrian tram rail_urban rail rail_electric rail_fast ship container cable_car subway aircraft wheelchair scooter drone" speed="3.65" length="4.67" shape="278.44,906.44 278.10,907.84 277.48,908.49 276.59,908.38 275.43,907.53"/>
    </edge>
    <edge id=":cluster_27148807_27310079_9" function="internal">
        <lane id=":cluster_27148807_27310079_9_0" index="0" disallow="pedestrian tram rail_urban rail rail_electric rail_fast ship container cable_car subway aircraft wheelchair scooter drone" speed="6.54" length="9.01" shape="272.14,914.74 274.29,913.54 275.55,911.94 275.94,909.94 275.43,907.53"/>
    </edge>
    <edge id=":cluster_27148807_27310079_10" function="internal">
        <lane id=":cluster_27148807_27310079_10_0" index="0" disallow="pedestrian tram rail_urban rail rail_electric rail_fast ship container cable_car subway aircraft wheelchair scooter drone" speed="16.67" length="14.26" shape="272.14,914.74 285.56,909.82"/>
        <lane id=":cluster_27148807_27310079_10_1" index="1" disallow="pedestrian tram rail_urban rail rail_electric rail_fast ship container cable_car subway aircraft wheelchair scooter drone" speed="16.67" length="14.26" shape="273.23,917.75 286.61,912.84"/>
        <lane id=":cluster_27148807_27310079_10_2" index="2" disallow="pedestrian tram rail_urban rail rail_electric rail_fast ship container cable_car subway aircraft wheelchair scooter drone" speed="16.67" length="14.26" shape="274.32,920.76 287.67,915.86"/>
    </edge>
    <edge id=":cluster_27148807_27310079_13" function="internal">
        <lane id=":cluster_27148807_27310079_13_0" index="0" disallow="pedestrian tram rail_urban rail rail_electric rail_fast ship container cable_car subway aircraft wheelchair scooter drone" speed="3.61" length="1.24" shape="274.32,920.76 275.53,921.05"/>
    </edge>
    <edge id=":cluster_27148807_27310079_16" function="internal">
        <lane id=":cluster_27148807_27310079_16_0" index="0" disallow="pedestrian tram rail_urban rail rail_electric rail_fast ship container cable_car subway aircraft wheelchair scooter drone" speed="3.61" length="3.24" shape="275.53,921.05 275.66,921.09 276.28,921.68 276.19,922.53 275.37,923.64"/>
    </edge>
    <edge id=":cluster_542900722_597563333_0" function="internal">
        <lane id=":cluster_542900722_597563333_0_0" index="0" disallow="pedestrian tram rail_urban rail rail_electric rail_fast ship container cable_car subway aircraft wheelchair scooter drone" speed="6.47" length="9.03" shape="696.75,881.77 696.28,879.33 695.14,877.64 693.34,876.71 690.87,876.51"/>
    </edge>
    <edge id=":cluster_542900722_597563333_1" function="internal">
        <lane id=":cluster_542900722_597563333_1_0" index="0" disallow="pedestrian tram rail_urban rail rail_electric rail_fast ship container cable_car subway aircraft wheelchair scooter drone" speed="15.28" length="29.27" shape="696.75,881.77 696.46,874.36 696.32,867.07 696.34,859.77 696.56,852.36"/>
        <lane id=":cluster_542900722_597563333_1_1" index="1" disallow="pedestrian tram rail_urban rail rail_electric rail_fast ship container cable_car subway aircraft wheelchair scooter drone" speed="15.28" length="29.27" shape="699.95,881.61 699.65,874.25 699.51,867.05 699.54,859.85 699.75,852.49"/>
    </edge>
    <edge id=":cluster_542900722_597563333_3" function="internal">
        <lane id=":cluster_542900722_597563333_3_0" index="0" disallow="pedestrian tram rail_urban rail rail_electric rail_fast ship container cable_car subway aircraft wheelchair scooter drone" speed="3.65" length="1.44" shape="699.95,881.61 700.69,880.37"/>
    </edge>
    <edge id=":cluster_542900722_597563333_13" function="internal">
        <lane id=":cluster_542900722_597563333_13_0" index="0" disallow="pedestrian tram rail_urban rail rail_electric rail_fast ship container cable_car subway aircraft wheelchair scooter drone" speed="3.65" length="3.23" shape="700.69,880.37 701.47,879.94 702.29,880.30 703.15,881.46"/>
    </edge>
    <edge id=":cluster_542900722_597563333_4" function="internal">
        <lane id=":cluster_542900722_597563333_4_0" index="0" disallow="pedestrian tram rail_urban rail rail_electric rail_fast ship container cable_car subway aircraft wheelchair scooter drone" speed="15.28" length="28.75" shape="709.34,852.89 708.56,861.95 707.44,868.70 706.52,874.66 706.34,881.30"/>
        <lane id=":cluster_542900722_597563333_4_1" index="1" disallow="pedestrian tram rail_urban rail rail_electric rail_fast ship container cable_car subway aircraft wheelchair scooter drone" speed="15.28" length="28.75" shape="706.15,852.76 705.36,861.92 704.24,868.77 703.32,874.79 703.15,881.46"/>
    </edge>
    <edge id=":cluster_542900722_597563333_6" function="internal">
        <lane id=":cluster_542900722_597563333_6_0" index="0" disallow="pedestrian tram rail_urban rail rail_electric rail_fast ship container cable_car subway aircraft wheelchair scooter drone" speed="11.19" length="7.51" shape="702.95,852.63 702.03,860.08"/>
        <lane id=":cluster_542900722_597563333_6_1" index="1" disallow="pedestrian tram rail_urban rail rail_electric rail_fast ship container cable_car subway aircraft wheelchair scooter drone" speed="10.65" length="6.33" shape="702.95,852.63 702.06,858.90"/>
    </edge>
    <edge id=":cluster_542900722_597563333_8" function="internal">
        <lane id=":cluster_542900722_597563333_8_0" index="0" disallow="pedestrian tram rail_urban rail rail_electric rail_fast ship container cable_car subway aircraft wheelchair scooter drone" speed="3.65" length="1.44" shape="702.95,852.63 702.10,853.79"/>
    </edge>
    <edge id=":cluster_542900722_597563333_14" function="internal">
        <lane id=":cluster_542900722_597563333_14_0" index="0" disallow="pedestrian tram rail_urban rail rail_electric rail_fast ship container cable_car subway aircraft wheelchair scooter drone" speed="11.19" length="18.90" shape="702.03,860.08 701.87,861.40 699.46,867.77 695.73,871.75 690.66,873.32"/>
        <lane id=":cluster_542900722_597563333_14_1" index="0" disallow="pedestrian tram rail_urban rail rail_electric rail_fast ship container cable_car subway aircraft wheelchair scooter drone" speed="10.65" length="17.48" shape="702.06,858.90 701.91,860.00 699.48,865.37 695.66,868.75 690.46,870.13"/>
    </edge>
    <edge id=":cluster_542900722_597563333_15" function="internal">
        <lane id=":cluster_542900722_597563333_15_0" index="0" disallow="pedestrian tram rail_urban rail rail_electric rail_fast ship container cable_car subway aircraft wheelchair scooter drone" speed="3.65" length="3.23" shape="702.10,853.79 701.28,854.16 700.50,853.73 699.75,852.49"/>
    </edge>
    <edge id=":cluster_542900722_597563333_9" function="internal">
        <lane id=":cluster_542900722_597563333_9_0" index="0" disallow="pedestrian tram rail_urban rail rail_electric rail_fast ship container cable_car subway aircraft wheelchair scooter drone" speed="7.32" length="10.16" shape="689.72,858.57 692.62,857.86 694.73,856.58 696.04,854.75 696.56,852.36"/>
        <lane id=":cluster_542900722_597563333_9_1" index="1" disallow="pedestrian tram rail_urban rail rail_electric rail_fast ship container cable_car subway aircraft wheelchair scooter drone" speed="8.74" length="14.87" shape="689.92,861.77 694.10,860.72 697.13,858.83 699.01,856.08 699.75,852.49"/>
    </edge>
    <edge id=":cluster_542900722_597563333_11" function="internal">
        <lane id=":cluster_542900722_597563333_11_0" index="0" disallow="pedestrian tram rail_urban rail rail_electric rail_fast ship container cable_car subway aircraft wheelchair scooter drone" speed="9.99" length="24.11" shape="690.13,864.97 695.49,865.40 699.45,868.30 702.00,873.65 703.15,881.46"/>
    </edge>
    <edge id=":cluster_542900722_597563333_12" function="internal">
        <lane id=":cluster_542900722_597563333_12_0" index="0" disallow="pedestrian tram rail_urban rail rail_electric rail_fast ship container cable_car subway aircraft wheelchair scooter drone" speed="4.38" length="3.77" shape="690.13,864.97 692.14,866.14 692.87,867.38"/>
    </edge>
    <edge id=":cluster_542900722_597563333_16" function="internal">
        <lane id=":cluster_542900722_597563333_16_0" index="0" disallow="pedestrian tram rail_urban rail rail_electric rail_fast ship container cable_car subway aircraft wheelchair scooter drone" speed="4.38" length="3.77" shape="692.87,867.38 692.31,868.71 690.46,870.13"/>
    </edge>

    <edge id="-1019458712" from="9402647552" to="9402647536" name="Molino River Drive" priority="10" type="highway.tertiary" shape="991.66,591.21 979.45,581.30 973.06,573.29 966.66,546.29 959.46,502.25 948.15,461.57 931.55,399.64 918.92,342.45 920.71,320.04 918.30,302.62 913.75,275.49 912.26,245.52 912.88,137.60">
        <lane id="-1019458712_0" index="0" disallow="pedestrian tram rail_urban rail rail_electric rail_fast ship container cable_car subway aircraft wheelchair scooter drone" speed="13.89" length="470.20" shape="990.65,592.45 978.31,582.43 971.59,574.00 965.09,546.61 957.90,502.59 946.61,462.00 930.00,400.02 917.31,342.56 919.10,320.08 916.72,302.86 912.16,275.66 910.66,245.56 911.28,137.60">
            <param key="origId" value="1019458712"/>
        </lane>
    </edge>
    <edge id="-130043752#1" from="3277870002" to="cluster_27148807_27310079" name="Masaito Drive" priority="10" type="highway.tertiary" shape="104.25,807.58 114.30,817.73 123.34,824.54 129.32,829.03 144.07,834.72 154.98,837.69 186.38,839.35 203.56,840.89 221.38,845.50 232.79,850.55 245.37,856.77 255.94,863.23 260.74,867.78 263.89,872.29 266.30,877.57 268.09,882.52 279.95,915.31">
        <lane id="-130043752#1_0" index="0" disallow="pedestrian tram rail_urban rail rail_electric rail_fast ship container cable_car subway aircraft wheelchair scooter drone" speed="8.33" length="216.08" shape="105.38,806.46 115.36,816.52 124.30,823.26 130.10,827.62 144.57,833.20 155.24,836.10 186.49,837.76 203.84,839.31 221.91,843.98 233.47,849.10 246.14,855.37 256.92,861.95 261.96,866.73 265.28,871.49 267.78,876.97 269.59,881.98 278.44,906.44">
            <param key="origId" value="130043752"/>
        </lane>
        <param key="origTo" value="27310079"/>
    </edge>
    <edge id="-183532951#2" from="542903486" to="cluster_542900722_597563333" name="Molino Road" priority="11" type="highway.secondary" shape="670.53,1103.14 686.76,1084.32 698.33,1069.92 704.96,1059.24 710.28,1048.24 711.55,1044.56 713.67,1038.35 715.47,1028.56 716.01,1023.71 716.92,1015.49 717.08,1011.90 717.34,1002.86 716.74,990.62 714.97,975.64 713.50,967.59 712.66,963.10 711.79,959.15 711.04,955.41 709.30,944.89 708.96,942.79 707.90,936.41 706.88,929.87 705.73,922.49 704.83,916.89 703.57,909.09 702.13,893.44 701.11,872.64">
        <lane id="-183532951#2_0" index="0" disallow="pedestrian tram rail_urban rail rail_electric rail_fast ship container cable_car subway aircraft wheelchair scooter drone" speed="13.89" length="234.38" shape="666.90,1100.01 683.07,1081.25 694.40,1067.14 700.75,1056.92 705.84,1046.42 707.00,1043.00 709.01,1037.14 710.72,1027.85 711.24,1023.19 712.13,1015.12 712.29,1011.72 712.53,1002.91 711.96,991.02 710.22,976.35 708.78,968.46 707.96,964.06 707.09,960.14 706.32,956.27 704.56,945.67 704.22,943.57 703.16,937.18 702.14,930.61 700.99,923.24 700.09,917.65 698.81,909.70 697.34,893.77 696.75,881.77">
            <param key="origId" value="183532951 180082941 180082941 109971528 109971528 109971528 109971505"/>
        </lane>
        <lane id="-183532951#2_1" index="1" disallow="pedestrian tram rail_urban rail rail_electric rail_fast ship container cable_car subway aircraft wheelchair scooter drone" speed="13.89" length="234.38" shape="669.32,1102.10 685.53,1083.30 697.02,1068.99 703.56,1058.46 708.80,1047.63 710.03,1044.04 712.12,1037.95 713.89,1028.32 714.42,1023.54 715.32,1015.37 715.48,1011.84 715.74,1002.88 715.15,990.75 713.39,975.88 711.93,967.88 711.10,963.42 710.22,959.48 709.47,955.70 707.72,945.15 707.38,943.05 706.32,936.67 705.30,930.12 704.15,922.74 703.25,917.14 701.98,909.30 700.53,893.55 699.95,881.61">
            <param key="origId" value="183532951 180082941 180082941 109971528 109971528 109971528 109971505"/>
        </lane>
        <param key="origTo" value="542900722"/>
    </edge>
    <edge id="-183543979#1" from="cluster_542900722_597563333" to="325280455" name="Molino Road" priority="12" type="highway.primary" shape="701.03,860.31 702.24,831.30 702.07,820.21 701.90,815.66 700.20,804.41 698.26,790.52 689.50,767.33 687.46,762.19 679.54,744.44 671.13,725.64">
        <lane id="-183543979#1_0" index="0" disallow="pedestrian tram rail_urban rail rail_electric rail_fast ship container cable_car subway aircraft wheelchair scooter drone" speed="16.67" length="122.31" shape="696.56,852.36 697.44,831.23 697.27,820.31 697.11,816.11 695.45,805.10 693.58,791.71 685.01,769.04 683.03,764.06 675.15,746.40 670.37,735.71">
            <param key="origId" value="183543979 183543979 820090516 820090516"/>
        </lane>
        <lane id="-183543979#1_1" index="1" disallow="pedestrian tram rail_urban rail rail_electric rail_fast ship container cable_car subway aircraft wheelchair scooter drone" speed="16.67" length="122.31" shape="699.75,852.49 700.64,831.27 700.47,820.24 700.30,815.81 698.62,804.64 696.70,790.91 688.00,767.90 685.98,762.81 678.08,745.10 673.30,734.40">
            <param key="origId" value="183543979 183543979 820090516 820090516"/>
        </lane>
        <param key="origFrom" value="597563333"/>
    </edge>
    <edge id="-282194769#5" from="325280455" to="1202984102" name="Molino Road" priority="12" type="highway.primary" shape="671.13,725.64 654.34,694.37 650.64,684.28 638.84,657.56 634.86,647.41 632.77,640.78 631.54,634.17 630.40,629.24 628.66,621.14 627.16,610.93 624.48,596.99 623.10,576.06 622.52,567.04 623.31,557.04 625.20,543.76 625.76,535.00 626.69,525.64 628.75,507.27 631.50,481.90 633.55,462.86 636.79,415.36 636.99,400.33 635.84,377.00 635.93,370.69 635.51,358.24 634.80,346.11 634.44,336.86 634.40,330.97 635.84,305.74 639.22,286.24 643.09,267.92 645.21,257.77 649.48,240.89 658.66,193.74 664.59,168.99 665.18,165.21 669.57,144.03 671.56,135.29 674.88,118.24 675.75,114.53 676.27,112.04 685.86,65.39 693.88,26.78 696.76,10.85 697.71,5.06 698.54,0.00">
        <lane id="-282194769#5_0" index="0" disallow="pedestrian tram rail_urban rail rail_electric rail_fast ship container cable_car subway aircraft wheelchair scooter drone" speed="16.67" length="738.57" shape="664.20,722.87 649.95,696.34 646.19,686.08 634.41,659.41 630.33,649.01 628.11,641.95 626.84,635.15 625.72,630.28 623.94,622.00 622.43,611.73 619.71,597.60 618.31,576.37 617.71,567.01 618.54,556.52 620.42,543.27 620.97,534.61 621.92,525.14 623.98,506.75 626.73,481.38 628.77,462.44 631.99,415.16 632.19,400.42 631.03,377.08 631.13,370.74 630.71,358.47 630.00,346.34 629.64,336.97 629.60,330.85 631.06,305.19 634.51,285.34 638.39,266.93 640.53,256.69 644.80,239.84 653.97,192.72 659.88,168.06 660.46,164.35 664.88,143.01 666.87,134.29 670.18,117.23 671.07,113.48 671.57,111.07 681.16,64.42 689.17,25.86 692.03,10.02 692.98,4.29 693.80,-0.78">
            <param key="origId" value="282194769"/>
        </lane>
        <lane id="-282194769#5_1" index="1" disallow="pedestrian tram rail_urban rail rail_electric rail_fast ship container cable_car subway aircraft wheelchair scooter drone" speed="16.67" length="738.57" shape="667.02,721.35 652.88,695.02 649.15,684.88 637.36,658.18 633.35,647.95 631.22,641.17 629.97,634.50 628.84,629.58 627.09,621.43 625.58,611.20 622.89,597.19 621.50,576.16 620.92,567.03 621.72,556.87 623.61,543.60 624.16,534.87 625.10,525.47 627.16,507.10 629.91,481.72 631.95,462.72 635.19,415.29 635.39,400.36 634.24,377.03 634.33,370.71 633.91,358.32 633.20,346.19 632.84,336.90 632.80,330.93 634.24,305.56 637.65,285.94 641.52,267.59 643.65,257.41 647.92,240.54 657.09,193.40 663.02,168.68 663.61,164.92 668.01,143.69 670.00,134.95 673.31,117.90 674.19,114.18 674.70,111.71 684.29,65.07 692.31,26.47 695.18,10.57 696.13,4.81 696.96,-0.26">
            <param key="origId" value="282194769"/>
        </lane>
    </edge>
    <edge id="-5031527" from="33616576" to="325280455" name="GSIS Road" priority="11" type="highway.secondary" shape="989.48,594.33 965.79,627.09 956.33,637.28 944.45,645.35 930.90,651.48 913.70,656.93 891.25,663.90 812.16,690.98 794.36,696.37 757.45,704.23 728.32,710.96 671.13,725.64">