<?xml version="1.0" encoding="UTF-8"?>

<!-- generated on 2025-09-11 21:48:55.039595 by osmWebWizard.py v1_24_0+0000-b72eb3fabc8
<configuration>
    <net-file value="C:\Users\kgaqu\OneDrive\Documents\4th Year\Capstone 2\v10\osm_importer\osm_scenarios\2025-09-11-21-48-46\osm.net.xml.gz"/>
    <output-trip-file value="C:\Users\kgaqu\OneDrive\Documents\4th Year\Capstone 2\v10\osm_importer\osm_scenarios\2025-09-11-21-48-46\osm.truck.trips.xml"/>
    <route-file value="C:\Users\kgaqu\OneDrive\Documents\4th Year\Capstone 2\v10\osm_importer\osm_scenarios\2025-09-11-21-48-46\osm.truck.rou.xml"/>
    <prefix value="truck"/>
    <trip-attributes value="departLane=&quot;best&quot;"/>
    <fringe-start-attributes value="departSpeed=&quot;max&quot;"/>
    <vehicle-class value="truck"/>
    <fringe-factor value="5"/>
    <edge-permission value="truck"/>
    <via-edge-types value="highway.motorway,highway.motorway_link,highway.trunk_link,highway.primary_link,highway.secondary_link,highway.tertiary_link"/>
    <seed value="46"/>
    <min-distance value="600.0"/>
    <min-distance.fringe value="10.0"/>
    <remove-loops value="True"/>
    <insertion-density value="8.0"/>
</configuration>
-->

<routes xmlns:xsi="http://www.w3.org/2001/XMLSchema-instance" xsi:noNamespaceSchemaLocation="http://sumo.dlr.de/xsd/routes_file.xsd">
    <vType id="truck_truck" vClass="truck"/>
    <trip id="truck0" depart="0.00" from="155750314" to="587063887#0" departLane="best" type="truck_truck" departSpeed="max"/>
    <trip id="truck1" depart="81.28" from="1214694494" to="587063887#0" departLane="best" type="truck_truck"/>
    <trip id="truck2" depart="162.57" from="155750314" to="1252226316" departLane="best" type="truck_truck" departSpeed="max"/>
    <trip id="truck3" depart="243.85" from="-587063887#6" to="-161980641" departLane="best" type="truck_truck" departSpeed="max"/>
    <trip id="truck4" depart="325.13" from="1214694494" to="587063887#0" departLane="best" type="truck_truck"/>
    <trip id="truck5" depart="406.41" from="-587063887#6" to="-29992073" departLane="best" type="truck_truck" departSpeed="max"/>
    <trip id="truck6" depart="487.70" from="-587063887#6" to="-161980641" departLane="best" type="truck_truck" departSpeed="max"/>
    <trip id="truck7" depart="568.98" from="155750314" to="587063887#0" departLane="best" type="truck_truck" departSpeed="max"/>
    <trip id="truck8" depart="650.26" from="1214694494" to="587063887#0" departLane="best" type="truck_truck"/>
    <trip id="truck9" depart="731.55" from="-587063887#6" to="-161980641" departLane="best" type="truck_truck" departSpeed="max"/>
    <trip id="truck10" depart="812.83" from="155750314" to="587063887#0" departLane="best" type="truck_truck" departSpeed="max"/>
    <trip id="truck11" depart="894.11" from="-587063887#6" to="-161980641" departLane="best" type="truck_truck" departSpeed="max"/>
    <trip id="truck12" depart="975.39" from="155750314" to="587063887#0" departLane="best" type="truck_truck" departSpeed="max"/>
    <trip id="truck13" depart="1056.68" from="155750314" to="587063887#0" departLane="best" type="truck_truck" departSpeed="max"/>
    <trip id="truck14" depart="1137.96" from="1214694494" to="587063887#0" departLane="best" type="truck_truck"/>
    <trip id="truck15" depart="1219.24" from="1214694494" to="587063887#0" departLane="best" type="truck_truck"/>
    <trip id="truck16" depart="1300.53" from="155750314" to="587063887#0" departLane="best" type="truck_truck" departSpeed="max"/>
    <trip id="truck17" depart="1381.81" from="155750314" to="587063887#0" departLane="best" type="truck_truck" departSpeed="max"/>
    <trip id="truck18" depart="1463.09" from="1252226318#0" to="-161980641" departLane="best" type="truck_truck"/>
    <trip id="truck19" depart="1544.38" from="155750314" to="587063887#0" departLane="best" type="truck_truck" departSpeed="max"/>
    <trip id="truck20" depart="1625.66" from="155750314" to="587063887#0" departLane="best" type="truck_truck" departSpeed="max"/>
    <trip id="truck21" depart="1706.94" from="1252226318#0" to="-161980641" departLane="best" type="truck_truck"/>
    <trip id="truck22" depart="1788.22" from="1214694494" to="587063887#0" departLane="best" type="truck_truck"/>
    <trip id="truck23" depart="1869.51" from="155750314" to="587063887#0" departLane="best" type="truck_truck" departSpeed="max"/>
    <trip id="truck24" depart="1950.79" from="155750314" to="587063887#0" departLane="best" type="truck_truck" departSpeed="max"/>
    <trip id="truck25" depart="2032.07" from="-587063887#6" to="-29992073" departLane="best" type="truck_truck" departSpeed="max"/>
    <trip id="truck26" depart="2113.36" from="1252226318#0" to="-161980641" departLane="best" type="truck_truck"/>
    <trip id="truck27" depart="2194.64" from="155750314" to="587063887#0" departLane="best" type="truck_truck" departSpeed="max"/>
    <trip id="truck28" depart="2275.92" from="155750314" to="587063887#0" departLane="best" type="truck_truck" departSpeed="max"/>
    <trip id="truck29" depart="2357.20" from="-587063887#6" to="-161980641" departLane="best" type="truck_truck" departSpeed="max"/>
    <trip id="truck30" depart="2438.49" from="155750314" to="587063887#0" departLane="best" type="truck_truck" departSpeed="max"/>
    <trip id="truck31" depart="2519.77" from="-587063887#6" to="-161980641" departLane="best" type="truck_truck" departSpeed="max"/>
    <trip id="truck32" depart="2601.05" from="1214694494" to="587063887#0" departLane="best" type="truck_truck"/>
    <trip id="truck33" depart="2682.34" from="-587063887#6" to="-161980641" departLane="best" type="truck_truck" departSpeed="max"/>
    <trip id="truck34" depart="2763.62" from="-587063887#6" to="-161980641" departLane="best" type="truck_truck" departSpeed="max"/>
    <trip id="truck35" depart="2844.90" from="-587063887#6" to="-161980641" departLane="best" type="truck_truck" departSpeed="max"/>
    <trip id="truck36" depart="2926.18" from="155750314" to="1252226316" departLane="best" type="truck_truck" departSpeed="max"/>
    <trip id="truck37" depart="3007.47" from="155750314" to="587063887#0" departLane="best" type="truck_truck" departSpeed="max"/>
    <trip id="truck38" depart="3088.75" from="-587063887#6" to="-161980641" departLane="best" type="truck_truck" departSpeed="max"/>
    <trip id="truck39" depart="3170.03" from="-587063887#6" to="-29992073" departLane="best" type="truck_truck" departSpeed="max"/>
    <trip id="truck40" depart="3251.32" from="-587063887#6" to="-161980641" departLane="best" type="truck_truck" departSpeed="max"/>
    <trip id="truck41" depart="3332.60" from="155750314" to="1252226316" departLane="best" type="truck_truck" departSpeed="max"/>
    <trip id="truck42" depart="3413.88" from="-587063887#6" to="-29992073" departLane="best" type="truck_truck" departSpeed="max"/>
    <trip id="truck43" depart="3495.16" from="-587063887#6" to="-161980641" departLane="best" type="truck_truck" departSpeed="max"/>
    <trip id="truck44" depart="3576.45" from="-587063887#6" to="-161980641" departLane="best" type="truck_truck" departSpeed="max"/>
</routes>
