<?xml version="1.0" encoding="UTF-8"?>

<!-- generated on 2025-09-03 00:53:44.007286 by osmWebWizard.py v1_24_0+0000-b72eb3fabc8
<configuration>
    <net-file value="C:\Users\kgaqu\OneDrive\Documents\4th Year\Capstone 2\v10\osm_importer\osm_scenarios\2025-09-03-00-53-39\osm.net.xml.gz"/>
    <output-trip-file value="C:\Users\kgaqu\OneDrive\Documents\4th Year\Capstone 2\v10\osm_importer\osm_scenarios\2025-09-03-00-53-39\osm.bicycle.trips.xml"/>
    <route-file value="C:\Users\kgaqu\OneDrive\Documents\4th Year\Capstone 2\v10\osm_importer\osm_scenarios\2025-09-03-00-53-39\osm.bicycle.rou.xml"/>
    <prefix value="bike"/>
    <trip-attributes value="departLane=&quot;best&quot;"/>
    <fringe-start-attributes value="departSpeed=&quot;max&quot;"/>
    <vehicle-class value="bicycle"/>
    <fringe-factor value="2"/>
    <edge-permission value="bicycle"/>
    <via-edge-types value="highway.motorway,highway.motorway_link,highway.trunk_link,highway.primary_link,highway.secondary_link,highway.tertiary_link"/>
    <max-distance value="8000.0"/>
    <remove-loops value="True"/>
    <insertion-density value="6.0"/>
</configuration>
-->

<routes xmlns:xsi="http://www.w3.org/2001/XMLSchema-instance" xsi:noNamespaceSchemaLocation="http://sumo.dlr.de/xsd/routes_file.xsd">
    <vType id="bike_bicycle" vClass="bicycle"/>
    <trip id="bike0" depart="0.00" from="5035715#0" to="-183541938#7" departLane="best" type="bike_bicycle"/>
    <trip id="bike1" depart="58.20" from="-282194769#5" to="-690977716#1" departLane="best" type="bike_bicycle" departSpeed="max"/>
    <trip id="bike2" depart="116.41" from="538760337#2" to="-183541938#7" departLane="best" type="bike_bicycle"/>
    <trip id="bike3" depart="174.61" from="109973440" to="-183541938#7" departLane="best" type="bike_bicycle" departSpeed="max"/>
    <trip id="bike4" depart="232.82" from="-282194769#1" to="158466203" departLane="best" type="bike_bicycle"/>
    <trip id="bike5" depart="291.02" from="-1019458707" to="-690977716#1" departLane="best" type="bike_bicycle" departSpeed="max"/>
    <trip id="bike6" depart="349.23" from="5035715#0" to="158466203" departLane="best" type="bike_bicycle"/>
    <trip id="bike7" depart="407.43" from="-282194769#1" to="183543973#0" departLane="best" type="bike_bicycle"/>
    <trip id="bike8" depart="465.64" from="538760337#0" to="-183541938#7" departLane="best" type="bike_bicycle"/>
    <trip id="bike9" depart="523.84" from="538760337#0" to="282194769#3" departLane="best" type="bike_bicycle"/>
    <trip id="bike10" depart="582.05" from="109973440" to="-690977716#1" departLane="best" type="bike_bicycle" departSpeed="max"/>
    <trip id="bike11" depart="640.25" from="-1019458707" to="-282194769#1" departLane="best" type="bike_bicycle" departSpeed="max"/>
    <trip id="bike12" depart="698.46" from="538760337#1" to="183543973#0" departLane="best" type="bike_bicycle"/>
    <trip id="bike13" depart="756.66" from="538760337#0" to="5035715#0" departLane="best" type="bike_bicycle"/>
    <trip id="bike14" depart="814.86" from="1155188968#2" to="538760337#2" departLane="best" type="bike_bicycle"/>
    <trip id="bike15" depart="873.07" from="109973440" to="158466203" departLane="best" type="bike_bicycle" departSpeed="max"/>
    <trip id="bike16" depart="931.27" from="538760337#1" to="183543973#0" departLane="best" type="bike_bicycle"/>
    <trip id="bike17" depart="989.48" from="538760337#2" to="183543973#0" departLane="best" type="bike_bicycle"/>
    <trip id="bike18" depart="1047.68" from="5035715#1" to="-183541938#7" departLane="best" type="bike_bicycle"/>
    <trip id="bike19" depart="1105.89" from="-282194769#1" to="1019458708#1" departLane="best" type="bike_bicycle"/>
    <trip id="bike20" depart="1164.09" from="-1019458707" to="-690977716#1" departLane="best" type="bike_bicycle" departSpeed="max"/>
    <trip id="bike21" depart="1222.30" from="-1019458712" to="1019458708#1" departLane="best" type="bike_bicycle" departSpeed="max"/>
    <trip id="bike22" depart="1280.50" from="109973440" to="-690977716#1" departLane="best" type="bike_bicycle" departSpeed="max"/>
    <trip id="bike23" depart="1338.71" from="-282194769#5" to="538760337#1" departLane="best" type="bike_bicycle" departSpeed="max"/>
    <trip id="bike24" depart="1396.91" from="5035715#0" to="183543973#0" departLane="best" type="bike_bicycle"/>
    <trip id="bike25" depart="1455.12" from="-1019458712" to="5035715#0" departLane="best" type="bike_bicycle" departSpeed="max"/>
    <trip id="bike26" depart="1513.32" from="-1019458712" to="1019458712" departLane="best" type="bike_bicycle" departSpeed="max"/>
    <trip id="bike27" depart="1571.52" from="690977719#0" to="282194769#3" departLane="best" type="bike_bicycle" departSpeed="max"/>
    <trip id="bike28" depart="1629.73" from="1155188968#2" to="282194769#3" departLane="best" type="bike_bicycle"/>
    <trip id="bike29" depart="1687.93" from="538760337#1" to="5035715#1" departLane="best" type="bike_bicycle"/>
    <trip id="bike30" depart="1746.14" from="-282194769#1" to="-183541938#7" departLane="best" type="bike_bicycle"/>
    <trip id="bike31" depart="1804.34" from="-282194769#5" to="1019458708#1" departLane="best" type="bike_bicycle" departSpeed="max"/>
    <trip id="bike32" depart="1862.55" from="-282194769#1" to="538760337#1" departLane="best" type="bike_bicycle"/>
    <trip id="bike33" depart="1920.75" from="538760337#2" to="1019458708#1" departLane="best" type="bike_bicycle"/>
    <trip id="bike34" depart="1978.96" from="-282194769#5" to="1019458708#1" departLane="best" type="bike_bicycle" departSpeed="max"/>
    <trip id="bike35" depart="2037.16" from="1155188968#2" to="1019458708#1" departLane="best" type="bike_bicycle"/>
    <trip id="bike36" depart="2095.37" from="109973440" to="-690977716#1" departLane="best" type="bike_bicycle" departSpeed="max"/>
    <trip id="bike37" depart="2153.57" from="690977719#0" to="158466203" departLane="best" type="bike_bicycle" departSpeed="max"/>
    <trip id="bike38" depart="2211.78" from="-1019458707" to="-183541938#7" departLane="best" type="bike_bicycle" departSpeed="max"/>
    <trip id="bike39" depart="2269.98" from="-1019458712" to="282194769#3" departLane="best" type="bike_bicycle" departSpeed="max"/>
    <trip id="bike40" depart="2328.18" from="690977719#0" to="158466203" departLane="best" type="bike_bicycle" departSpeed="max"/>
    <trip id="bike41" depart="2386.39" from="-1019458707" to="5035715#0" departLane="best" type="bike_bicycle" departSpeed="max"/>
    <trip id="bike42" depart="2444.59" from="5035715#1" to="158466203" departLane="best" type="bike_bicycle"/>
    <trip id="bike43" depart="2502.80" from="-282194769#5" to="282194769#3" departLane="best" type="bike_bicycle" departSpeed="max"/>
    <trip id="bike44" depart="2561.00" from="-1019458712" to="1155188968#2" departLane="best" type="bike_bicycle" departSpeed="max"/>
    <trip id="bike45" depart="2619.21" from="1155188968#0" to="538760337#2" departLane="best" type="bike_bicycle" departSpeed="max"/>
    <trip id="bike46" depart="2677.41" from="538760337#2" to="1019458708#1" departLane="best" type="bike_bicycle"/>
    <trip id="bike47" depart="2735.62" from="1155188968#0" to="-690977716#1" departLane="best" type="bike_bicycle" departSpeed="max"/>
    <trip id="bike48" depart="2793.82" from="-282194769#5" to="282194769#3" departLane="best" type="bike_bicycle" departSpeed="max"/>
    <trip id="bike49" depart="2852.03" from="183543973#0" to="-690977716#1" departLane="best" type="bike_bicycle"/>
    <trip id="bike50" depart="2910.23" from="538760337#0" to="158466203" departLane="best" type="bike_bicycle"/>
    <trip id="bike51" depart="2968.44" from="538760337#0" to="158466203" departLane="best" type="bike_bicycle"/>
    <trip id="bike52" depart="3026.64" from="-1019458707" to="1019458708#1" departLane="best" type="bike_bicycle" departSpeed="max"/>
    <trip id="bike53" depart="3084.84" from="-1019458707" to="538760337#1" departLane="best" type="bike_bicycle" departSpeed="max"/>
    <trip id="bike54" depart="3143.05" from="538760337#2" to="5035715#2" departLane="best" type="bike_bicycle"/>
    <trip id="bike55" depart="3201.25" from="-282194769#5" to="-183541938#7" departLane="best" type="bike_bicycle" departSpeed="max"/>
    <trip id="bike56" depart="3259.46" from="538760337#2" to="538760337#1" departLane="best" type="bike_bicycle"/>
    <trip id="bike57" depart="3317.66" from="-1019458707" to="158466203" departLane="best" type="bike_bicycle" departSpeed="max"/>
    <trip id="bike58" depart="3375.87" from="-1019458707" to="5035715#0" departLane="best" type="bike_bicycle" departSpeed="max"/>
    <trip id="bike59" depart="3434.07" from="538760337#0" to="-282194769#1" departLane="best" type="bike_bicycle"/>
    <trip id="bike60" depart="3492.28" from="1155188968#0" to="158466203" departLane="best" type="bike_bicycle" departSpeed="max"/>
    <trip id="bike61" depart="3550.48" from="109973440" to="-690977716#1" departLane="best" type="bike_bicycle" departSpeed="max"/>
</routes>
