<?xml version="1.0" encoding="UTF-8"?>

<!-- generated on 2025-09-03 00:53:46.590739 by osmWebWizard.py v1_24_0+0000-b72eb3fabc8
<configuration>
    <net-file value="C:\Users\kgaqu\OneDrive\Documents\4th Year\Capstone 2\v10\osm_importer\osm_scenarios\2025-09-03-00-53-39\osm.net.xml.gz"/>
    <output-trip-file value="C:\Users\kgaqu\OneDrive\Documents\4th Year\Capstone 2\v10\osm_importer\osm_scenarios\2025-09-03-00-53-39\osm.truck.trips.xml"/>
    <route-file value="C:\Users\kgaqu\OneDrive\Documents\4th Year\Capstone 2\v10\osm_importer\osm_scenarios\2025-09-03-00-53-39\osm.truck.rou.xml"/>
    <prefix value="truck"/>
    <trip-attributes value="departLane=&quot;best&quot;"/>
    <fringe-start-attributes value="departSpeed=&quot;max&quot;"/>
    <vehicle-class value="truck"/>
    <fringe-factor value="5"/>
    <edge-permission value="truck"/>
    <via-edge-types value="highway.motorway,highway.motorway_link,highway.trunk_link,highway.primary_link,highway.secondary_link,highway.tertiary_link"/>
    <seed value="47"/>
    <min-distance value="600.0"/>
    <min-distance.fringe value="10.0"/>
    <remove-loops value="True"/>
    <insertion-density value="8.0"/>
</configuration>
-->

<routes xmlns:xsi="http://www.w3.org/2001/XMLSchema-instance" xsi:noNamespaceSchemaLocation="http://sumo.dlr.de/xsd/routes_file.xsd">
    <vType id="truck_truck" vClass="truck"/>
    <trip id="truck0" depart="0.00" from="109973440" to="1019458708#1" departLane="best" type="truck_truck" departSpeed="max"/>
    <trip id="truck1" depart="43.65" from="109973440" to="1019458708#1" departLane="best" type="truck_truck" departSpeed="max"/>
    <trip id="truck2" depart="87.31" from="-1019458707" to="-183541938#7" departLane="best" type="truck_truck" departSpeed="max"/>
    <trip id="truck3" depart="130.96" from="1155188968#0" to="-690977716#1" departLane="best" type="truck_truck" departSpeed="max"/>
    <trip id="truck4" depart="174.61" from="109973440" to="1019458708#1" departLane="best" type="truck_truck" departSpeed="max"/>
    <trip id="truck5" depart="218.27" from="690977719#0" to="-183541938#7" departLane="best" type="truck_truck" departSpeed="max"/>
    <trip id="truck6" depart="261.92" from="-282194769#5" to="158466203" departLane="best" type="truck_truck" departSpeed="max"/>
    <trip id="truck7" depart="305.57" from="-282194769#5" to="1019458708#1" departLane="best" type="truck_truck" departSpeed="max"/>
    <trip id="truck8" depart="349.23" from="1155188968#0" to="-690977716#1" departLane="best" type="truck_truck" departSpeed="max"/>
    <trip id="truck9" depart="392.88" from="690977719#0" to="282194769#3" departLane="best" type="truck_truck" departSpeed="max"/>
    <trip id="truck10" depart="436.53" from="1155188968#2" to="1019458708#1" departLane="best" type="truck_truck"/>
    <trip id="truck11" depart="480.19" from="1155188968#0" to="-690977716#1" departLane="best" type="truck_truck" departSpeed="max"/>
    <trip id="truck12" depart="523.84" from="1155188968#0" to="-690977716#1" departLane="best" type="truck_truck" departSpeed="max"/>
    <trip id="truck13" depart="567.50" from="109973440" to="538760337#1" departLane="best" type="truck_truck" departSpeed="max"/>
    <trip id="truck14" depart="611.15" from="109973440" to="538760337#2" departLane="best" type="truck_truck" departSpeed="max"/>
    <trip id="truck15" depart="654.80" from="1155188968#0" to="282194769#3" departLane="best" type="truck_truck" departSpeed="max"/>
    <trip id="truck16" depart="698.46" from="690977719#0" to="-183541938#7" departLane="best" type="truck_truck" departSpeed="max"/>
    <trip id="truck17" depart="742.11" from="-282194769#1" to="158466203" departLane="best" type="truck_truck"/>
    <trip id="truck18" depart="785.76" from="109973440" to="158466203" departLane="best" type="truck_truck" departSpeed="max"/>
    <trip id="truck19" depart="829.42" from="109973440" to="183543973#0" departLane="best" type="truck_truck" departSpeed="max"/>
    <trip id="truck20" depart="873.07" from="538760337#0" to="1019458708#1" departLane="best" type="truck_truck"/>
    <trip id="truck21" depart="916.72" from="690977719#0" to="158466203" departLane="best" type="truck_truck" departSpeed="max"/>
    <trip id="truck22" depart="960.38" from="-1019458707" to="-282194769#1" departLane="best" type="truck_truck" departSpeed="max"/>
    <trip id="truck23" depart="1004.03" from="-282194769#5" to="-690977716#1" departLane="best" type="truck_truck" departSpeed="max"/>
    <trip id="truck24" depart="1047.68" from="-1019458707" to="-183541938#7" departLane="best" type="truck_truck" departSpeed="max"/>
    <trip id="truck25" depart="1091.34" from="-1019458707" to="-183541938#7" departLane="best" type="truck_truck" departSpeed="max"/>
    <trip id="truck26" depart="1134.99" from="-1019458707" to="-183541938#7" departLane="best" type="truck_truck" departSpeed="max"/>
    <trip id="truck27" depart="1178.64" from="-1019458707" to="-183541938#7" departLane="best" type="truck_truck" departSpeed="max"/>
    <trip id="truck28" depart="1222.30" from="-1019458707" to="-183541938#7" departLane="best" type="truck_truck" departSpeed="max"/>
    <trip id="truck29" depart="1265.95" from="1155188968#0" to="-690977716#1" departLane="best" type="truck_truck" departSpeed="max"/>
    <trip id="truck30" depart="1309.60" from="1155188968#0" to="282194769#3" departLane="best" type="truck_truck" departSpeed="max"/>
    <trip id="truck31" depart="1353.26" from="1155188968#0" to="538760337#2" departLane="best" type="truck_truck" departSpeed="max"/>
    <trip id="truck32" depart="1396.91" from="109973440" to="1019458708#1" departLane="best" type="truck_truck" departSpeed="max"/>
    <trip id="truck33" depart="1440.56" from="109973440" to="-282194769#1" departLane="best" type="truck_truck" departSpeed="max"/>
    <trip id="truck34" depart="1484.22" from="690977719#0" to="-183541938#7" departLane="best" type="truck_truck" departSpeed="max"/>
    <trip id="truck35" depart="1527.87" from="109973440" to="282194769#3" departLane="best" type="truck_truck" departSpeed="max"/>
    <trip id="truck36" depart="1571.52" from="1155188968#0" to="282194769#3" departLane="best" type="truck_truck" departSpeed="max"/>
    <trip id="truck37" depart="1615.18" from="-1019458707" to="282194769#3" departLane="best" type="truck_truck" departSpeed="max"/>
    <trip id="truck38" depart="1658.83" from="-1019458707" to="-183541938#7" departLane="best" type="truck_truck" departSpeed="max"/>
    <trip id="truck39" depart="1702.49" from="1155188968#2" to="-183541938#7" departLane="best" type="truck_truck"/>
    <trip id="truck40" depart="1746.14" from="-1019458707" to="282194769#3" departLane="best" type="truck_truck" departSpeed="max"/>
    <trip id="truck41" depart="1789.79" from="1155188968#0" to="1019458712" departLane="best" type="truck_truck" departSpeed="max"/>
    <trip id="truck42" depart="1833.45" from="109973440" to="158466203" departLane="best" type="truck_truck" departSpeed="max"/>
    <trip id="truck43" depart="1877.10" from="690977719#0" to="282194769#3" departLane="best" type="truck_truck" departSpeed="max"/>
    <trip id="truck44" depart="1920.75" from="109973440" to="1019458708#1" departLane="best" type="truck_truck" departSpeed="max"/>
    <trip id="truck45" depart="1964.41" from="-282194769#5" to="-183541938#7" departLane="best" type="truck_truck" departSpeed="max"/>
    <trip id="truck46" depart="2008.06" from="5035715#1" to="1019458708#1" departLane="best" type="truck_truck"/>
    <trip id="truck47" depart="2051.71" from="690977719#0" to="158466203" departLane="best" type="truck_truck" departSpeed="max"/>
    <trip id="truck48" depart="2095.37" from="109973440" to="282194769#3" departLane="best" type="truck_truck" departSpeed="max"/>
    <trip id="truck49" depart="2139.02" from="-282194769#5" to="158466203" departLane="best" type="truck_truck" departSpeed="max"/>
    <trip id="truck50" depart="2182.67" from="-1019458707" to="5035715#0" departLane="best" type="truck_truck" departSpeed="max"/>
    <trip id="truck51" depart="2226.33" from="109973440" to="158466203" departLane="best" type="truck_truck" departSpeed="max"/>
    <trip id="truck52" depart="2269.98" from="538760337#2" to="1019458708#1" departLane="best" type="truck_truck"/>
    <trip id="truck53" depart="2313.63" from="109973440" to="1019458708#1" departLane="best" type="truck_truck" departSpeed="max"/>
    <trip id="truck54" depart="2357.29" from="-1019458707" to="158466203" departLane="best" type="truck_truck" departSpeed="max"/>
    <trip id="truck55" depart="2400.94" from="690977719#0" to="158466203" departLane="best" type="truck_truck" departSpeed="max"/>
    <trip id="truck56" depart="2444.59" from="1155188968#2" to="1019458708#1" departLane="best" type="truck_truck"/>
    <trip id="truck57" depart="2488.25" from="-1019458707" to="158466203" departLane="best" type="truck_truck" departSpeed="max"/>
    <trip id="truck58" depart="2531.90" from="-1019458712" to="-183541938#7" departLane="best" type="truck_truck" departSpeed="max"/>
    <trip id="truck59" depart="2575.55" from="109973440" to="-690977716#1" departLane="best" type="truck_truck" departSpeed="max"/>
    <trip id="truck60" depart="2619.21" from="-1019458712" to="158466203" departLane="best" type="truck_truck" departSpeed="max"/>
    <trip id="truck61" depart="2662.86" from="-1019458707" to="-282194769#1" departLane="best" type="truck_truck" departSpeed="max"/>
    <trip id="truck62" depart="2706.51" from="1155188968#0" to="282194769#3" departLane="best" type="truck_truck" departSpeed="max"/>
    <trip id="truck63" depart="2750.17" from="690977719#0" to="-183541938#7" departLane="best" type="truck_truck" departSpeed="max"/>
    <trip id="truck64" depart="2793.82" from="538760337#1" to="1019458708#1" departLane="best" type="truck_truck"/>
    <trip id="truck65" depart="2837.48" from="1155188968#0" to="-183541938#7" departLane="best" type="truck_truck" departSpeed="max"/>
    <trip id="truck66" depart="2881.13" from="109973440" to="538760337#2" departLane="best" type="truck_truck" departSpeed="max"/>
    <trip id="truck67" depart="2924.78" from="-282194769#5" to="-183541938#7" departLane="best" type="truck_truck" departSpeed="max"/>
    <trip id="truck68" depart="2968.44" from="1155188968#0" to="-183541938#7" departLane="best" type="truck_truck" departSpeed="max"/>
    <trip id="truck69" depart="3012.09" from="-1019458712" to="158466203" departLane="best" type="truck_truck" departSpeed="max"/>
    <trip id="truck70" depart="3055.74" from="109973440" to="183543973#0" departLane="best" type="truck_truck" departSpeed="max"/>
    <trip id="truck71" depart="3099.40" from="5035715#1" to="1019458708#1" departLane="best" type="truck_truck"/>
    <trip id="truck72" depart="3143.05" from="-1019458707" to="282194769#3" departLane="best" type="truck_truck" departSpeed="max"/>
    <trip id="truck73" depart="3186.70" from="109973440" to="-690977716#1" departLane="best" type="truck_truck" departSpeed="max"/>
    <trip id="truck74" depart="3230.36" from="1155188968#0" to="-183541938#7" departLane="best" type="truck_truck" departSpeed="max"/>
    <trip id="truck75" depart="3274.01" from="690977719#0" to="158466203" departLane="best" type="truck_truck" departSpeed="max"/>
    <trip id="truck76" depart="3317.66" from="538760337#0" to="-183541938#7" departLane="best" type="truck_truck"/>
    <trip id="truck77" depart="3361.32" from="-1019458707" to="158466203" departLane="best" type="truck_truck" departSpeed="max"/>
    <trip id="truck78" depart="3404.97" from="5035715#0" to="-183541938#7" departLane="best" type="truck_truck"/>
    <trip id="truck79" depart="3448.62" from="-282194769#5" to="158466203" departLane="best" type="truck_truck" departSpeed="max"/>
    <trip id="truck80" depart="3492.28" from="1155188968#2" to="1019458708#1" departLane="best" type="truck_truck"/>
    <trip id="truck81" depart="3535.93" from="-1019458707" to="282194769#3" departLane="best" type="truck_truck" departSpeed="max"/>
    <trip id="truck82" depart="3579.58" from="-1019458712" to="1019458708#1" departLane="best" type="truck_truck" departSpeed="max"/>
</routes>
