<?xml version="1.0" encoding="UTF-8"?>

<!-- generated on 2025-09-03 00:53:45.952219 by osmWebWizard.py v1_24_0+0000-b72eb3fabc8
<configuration>
    <net-file value="C:\Users\kgaqu\OneDrive\Documents\4th Year\Capstone 2\v10\osm_importer\osm_scenarios\2025-09-03-00-53-39\osm.net.xml.gz"/>
    <output-trip-file value="C:\Users\kgaqu\OneDrive\Documents\4th Year\Capstone 2\v10\osm_importer\osm_scenarios\2025-09-03-00-53-39\osm.passenger.trips.xml"/>
    <route-file value="C:\Users\kgaqu\OneDrive\Documents\4th Year\Capstone 2\v10\osm_importer\osm_scenarios\2025-09-03-00-53-39\osm.passenger.rou.xml"/>
    <prefix value="veh"/>
    <trip-attributes value="departLane=&quot;best&quot;"/>
    <fringe-start-attributes value="departSpeed=&quot;max&quot;"/>
    <vehicle-class value="passenger"/>
    <lanes value="True"/>
    <fringe-factor value="5"/>
    <allow-fringe.min-length value="1000.0"/>
    <edge-permission value="passenger"/>
    <via-edge-types value="highway.motorway,highway.motorway_link,highway.trunk_link,highway.primary_link,highway.secondary_link,highway.tertiary_link"/>
    <seed value="45"/>
    <min-distance value="300.0"/>
    <min-distance.fringe value="10.0"/>
    <remove-loops value="True"/>
    <insertion-density value="12.0"/>
</configuration>
-->

<routes xmlns:xsi="http://www.w3.org/2001/XMLSchema-instance" xsi:noNamespaceSchemaLocation="http://sumo.dlr.de/xsd/routes_file.xsd">
    <vType id="veh_passenger" vClass="passenger"/>
    <trip id="veh0" depart="0.00" from="-1019458707" to="-183541938#7" departLane="best" type="veh_passenger" departSpeed="max"/>
    <trip id="veh1" depart="29.10" from="-282194769#5" to="-282194769#1" departLane="best" type="veh_passenger" departSpeed="max"/>
    <trip id="veh2" depart="58.20" from="-1019458707" to="282194769#3" departLane="best" type="veh_passenger" departSpeed="max"/>
    <trip id="veh3" depart="87.31" from="-1019458712" to="5035715#0" departLane="best" type="veh_passenger" departSpeed="max"/>
    <trip id="veh4" depart="116.41" from="538760337#0" to="-690977716#1" departLane="best" type="veh_passenger"/>
    <trip id="veh5" depart="145.51" from="690977719#0" to="282194769#3" departLane="best" type="veh_passenger" departSpeed="max"/>
    <trip id="veh6" depart="174.61" from="-1019458712" to="-690977716#1" departLane="best" type="veh_passenger" departSpeed="max"/>
    <trip id="veh7" depart="203.72" from="-1019458712" to="-282194769#1" departLane="best" type="veh_passenger" departSpeed="max"/>
    <trip id="veh8" depart="232.82" from="538760337#0" to="1019458708#1" departLane="best" type="veh_passenger"/>
    <trip id="veh9" depart="261.92" from="109973440" to="5035715#2" departLane="best" type="veh_passenger" departSpeed="max"/>
    <trip id="veh10" depart="291.02" from="538760337#0" to="282194769#3" departLane="best" type="veh_passenger"/>
    <trip id="veh11" depart="320.13" from="690977719#0" to="282194769#3" departLane="best" type="veh_passenger" departSpeed="max"/>
    <trip id="veh12" depart="349.23" from="538760337#2" to="282194769#3" departLane="best" type="veh_passenger"/>
    <trip id="veh13" depart="378.33" from="183543973#0" to="-183541938#7" departLane="best" type="veh_passenger"/>
    <trip id="veh14" depart="407.43" from="-1019458707" to="158466203" departLane="best" type="veh_passenger" departSpeed="max"/>
    <trip id="veh15" depart="436.53" from="5035715#0" to="-690977716#1" departLane="best" type="veh_passenger"/>
    <trip id="veh16" depart="465.64" from="109973440" to="5035715#1" departLane="best" type="veh_passenger" departSpeed="max"/>
    <trip id="veh17" depart="494.74" from="690977719#0" to="183543973#0" departLane="best" type="veh_passenger" departSpeed="max"/>
    <trip id="veh18" depart="523.84" from="-1019458707" to="5035715#1" departLane="best" type="veh_passenger" departSpeed="max"/>
    <trip id="veh19" depart="552.94" from="5035715#1" to="158466203" departLane="best" type="veh_passenger"/>
    <trip id="veh20" depart="582.05" from="-282194769#5" to="1019458708#1" departLane="best" type="veh_passenger" departSpeed="max"/>
    <trip id="veh21" depart="611.15" from="-282194769#1" to="282194769#3" departLane="best" type="veh_passenger"/>
    <trip id="veh22" depart="640.25" from="-1019458707" to="538760337#1" departLane="best" type="veh_passenger" departSpeed="max"/>
    <trip id="veh23" depart="669.35" from="-1019458712" to="282194769#3" departLane="best" type="veh_passenger" departSpeed="max"/>
    <trip id="veh24" depart="698.46" from="1155188968#2" to="1019458708#1" departLane="best" type="veh_passenger"/>
    <trip id="veh25" depart="727.56" from="-282194769#5" to="538760337#2" departLane="best" type="veh_passenger" departSpeed="max"/>
    <trip id="veh26" depart="756.66" from="5035715#0" to="158466203" departLane="best" type="veh_passenger"/>
    <trip id="veh27" depart="785.76" from="5035715#1" to="158466203" departLane="best" type="veh_passenger"/>
    <trip id="veh28" depart="814.86" from="-1019458712" to="-183541938#7" departLane="best" type="veh_passenger" departSpeed="max"/>
    <trip id="veh29" depart="843.97" from="690977719#0" to="5035715#1" departLane="best" type="veh_passenger" departSpeed="max"/>
    <trip id="veh30" depart="873.07" from="-1019458712" to="183543973#0" departLane="best" type="veh_passenger" departSpeed="max"/>
    <trip id="veh31" depart="902.17" from="-1019458707" to="-690977716#1" departLane="best" type="veh_passenger" departSpeed="max"/>
    <trip id="veh32" depart="931.27" from="109973440" to="183543973#0" departLane="best" type="veh_passenger" departSpeed="max"/>
    <trip id="veh33" depart="960.38" from="-1019458707" to="282194769#3" departLane="best" type="veh_passenger" departSpeed="max"/>
    <trip id="veh34" depart="989.48" from="690977719#0" to="1019458708#1" departLane="best" type="veh_passenger" departSpeed="max"/>
    <trip id="veh35" depart="1018.58" from="109973440" to="1019458708#1" departLane="best" type="veh_passenger" departSpeed="max"/>
    <trip id="veh36" depart="1047.68" from="-1019458707" to="183543973#0" departLane="best" type="veh_passenger" departSpeed="max"/>
    <trip id="veh37" depart="1076.79" from="690977719#0" to="282194769#3" departLane="best" type="veh_passenger" departSpeed="max"/>
    <trip id="veh38" depart="1105.89" from="-282194769#5" to="1019458708#1" departLane="best" type="veh_passenger" departSpeed="max"/>
    <trip id="veh39" depart="1134.99" from="1155188968#0" to="282194769#3" departLane="best" type="veh_passenger" departSpeed="max"/>
    <trip id="veh40" depart="1164.09" from="690977719#0" to="282194769#3" departLane="best" type="veh_passenger" departSpeed="max"/>
    <trip id="veh41" depart="1193.19" from="690977719#0" to="282194769#3" departLane="best" type="veh_passenger" departSpeed="max"/>
    <trip id="veh42" depart="1222.30" from="183543973#0" to="-183541938#7" departLane="best" type="veh_passenger"/>
    <trip id="veh43" depart="1251.40" from="-282194769#5" to="-183541938#7" departLane="best" type="veh_passenger" departSpeed="max"/>
    <trip id="veh44" depart="1280.50" from="5035715#0" to="1019458708#1" departLane="best" type="veh_passenger"/>
    <trip id="veh45" depart="1309.60" from="690977719#0" to="5035715#0" departLane="best" type="veh_passenger" departSpeed="max"/>
    <trip id="veh46" depart="1338.71" from="690977719#0" to="1019458708#1" departLane="best" type="veh_passenger" departSpeed="max"/>
    <trip id="veh47" depart="1367.81" from="-1019458707" to="282194769#3" departLane="best" type="veh_passenger" departSpeed="max"/>
    <trip id="veh48" depart="1396.91" from="690977719#0" to="158466203" departLane="best" type="veh_passenger" departSpeed="max"/>
    <trip id="veh49" depart="1426.01" from="-282194769#5" to="5035715#1" departLane="best" type="veh_passenger" departSpeed="max"/>
    <trip id="veh50" depart="1455.12" from="1155188968#0" to="1019458712" departLane="best" type="veh_passenger" departSpeed="max"/>
    <trip id="veh51" depart="1484.22" from="538760337#0" to="282194769#3" departLane="best" type="veh_passenger"/>
    <trip id="veh52" depart="1513.32" from="183543973#0" to="282194769#3" departLane="best" type="veh_passenger"/>
    <trip id="veh53" depart="1542.42" from="109973440" to="183543973#0" departLane="best" type="veh_passenger" departSpeed="max"/>
    <trip id="veh54" depart="1571.52" from="-1019458712" to="282194769#3" departLane="best" type="veh_passenger" departSpeed="max"/>
    <trip id="veh55" depart="1600.63" from="5035715#1" to="282194769#3" departLane="best" type="veh_passenger"/>
    <trip id="veh56" depart="1629.73" from="5035715#1" to="-690977716#1" departLane="best" type="veh_passenger"/>
    <trip id="veh57" depart="1658.83" from="690977719#0" to="282194769#3" departLane="best" type="veh_passenger" departSpeed="max"/>
    <trip id="veh58" depart="1687.93" from="5035715#0" to="-690977716#1" departLane="best" type="veh_passenger"/>
    <trip id="veh59" depart="1717.04" from="1155188968#2" to="1019458708#1" departLane="best" type="veh_passenger"/>
    <trip id="veh60" depart="1746.14" from="-282194769#5" to="-183541938#7" departLane="best" type="veh_passenger" departSpeed="max"/>
    <trip id="veh61" depart="1775.24" from="-1019458712" to="158466203" departLane="best" type="veh_passenger" departSpeed="max"/>
    <trip id="veh62" depart="1804.34" from="690977719#0" to="-183541938#7" departLane="best" type="veh_passenger" departSpeed="max"/>
    <trip id="veh63" depart="1833.45" from="109973440" to="1019458708#1" departLane="best" type="veh_passenger" departSpeed="max"/>
    <trip id="veh64" depart="1862.55" from="109973440" to="282194769#3" departLane="best" type="veh_passenger" departSpeed="max"/>
    <trip id="veh65" depart="1891.65" from="1155188968#0" to="-690977716#1" departLane="best" type="veh_passenger" departSpeed="max"/>
    <trip id="veh66" depart="1920.75" from="690977719#0" to="5035715#0" departLane="best" type="veh_passenger" departSpeed="max"/>
    <trip id="veh67" depart="1949.85" from="1155188968#0" to="-690977716#1" departLane="best" type="veh_passenger" departSpeed="max"/>
    <trip id="veh68" depart="1978.96" from="-1019458712" to="538760337#0" departLane="best" type="veh_passenger" departSpeed="max"/>
    <trip id="veh69" depart="2008.06" from="109973440" to="-282194769#1" departLane="best" type="veh_passenger" departSpeed="max"/>
    <trip id="veh70" depart="2037.16" from="690977719#0" to="158466203" departLane="best" type="veh_passenger" departSpeed="max"/>
    <trip id="veh71" depart="2066.26" from="109973440" to="-690977716#1" departLane="best" type="veh_passenger" departSpeed="max"/>
    <trip id="veh72" depart="2095.37" from="1155188968#0" to="5035715#2" departLane="best" type="veh_passenger" departSpeed="max"/>
    <trip id="veh73" depart="2124.47" from="-1019458712" to="538760337#2" departLane="best" type="veh_passenger" departSpeed="max"/>
    <trip id="veh74" depart="2153.57" from="1155188968#0" to="282194769#3" departLane="best" type="veh_passenger" departSpeed="max"/>
    <trip id="veh75" depart="2182.67" from="109973440" to="5035715#2" departLane="best" type="veh_passenger" departSpeed="max"/>
    <trip id="veh76" depart="2211.78" from="5035715#0" to="-183541938#7" departLane="best" type="veh_passenger"/>
    <trip id="veh77" depart="2240.88" from="-1019458707" to="5035715#1" departLane="best" type="veh_passenger" departSpeed="max"/>
    <trip id="veh78" depart="2269.98" from="183543973#0" to="282194769#3" departLane="best" type="veh_passenger"/>
    <trip id="veh79" depart="2299.08" from="1155188968#0" to="282194769#3" departLane="best" type="veh_passenger" departSpeed="max"/>
    <trip id="veh80" depart="2328.18" from="-282194769#5" to="1019458708#1" departLane="best" type="veh_passenger" departSpeed="max"/>
    <trip id="veh81" depart="2357.29" from="-282194769#5" to="-690977716#1" departLane="best" type="veh_passenger" departSpeed="max"/>
    <trip id="veh82" depart="2386.39" from="690977719#0" to="5035715#2" departLane="best" type="veh_passenger" departSpeed="max"/>
    <trip id="veh83" depart="2415.49" from="1155188968#0" to="-183541938#7" departLane="best" type="veh_passenger" departSpeed="max"/>
    <trip id="veh84" depart="2444.59" from="690977719#0" to="5035715#0" departLane="best" type="veh_passenger" departSpeed="max"/>
    <trip id="veh85" depart="2473.70" from="109973440" to="-690977716#1" departLane="best" type="veh_passenger" departSpeed="max"/>
    <trip id="veh86" depart="2502.80" from="-1019458712" to="-282194769#1" departLane="best" type="veh_passenger" departSpeed="max"/>
    <trip id="veh87" depart="2531.90" from="5035715#1" to="1019458708#1" departLane="best" type="veh_passenger"/>
    <trip id="veh88" depart="2561.00" from="-282194769#5" to="-282194769#1" departLane="best" type="veh_passenger" departSpeed="max"/>
    <trip id="veh89" depart="2590.11" from="690977719#0" to="5035715#1" departLane="best" type="veh_passenger" departSpeed="max"/>
    <trip id="veh90" depart="2619.21" from="109973440" to="282194769#3" departLane="best" type="veh_passenger" departSpeed="max"/>
    <trip id="veh91" depart="2648.31" from="690977719#0" to="282194769#3" departLane="best" type="veh_passenger" departSpeed="max"/>
    <trip id="veh92" depart="2677.41" from="-1019458712" to="-282194769#1" departLane="best" type="veh_passenger" departSpeed="max"/>
    <trip id="veh93" depart="2706.51" from="-1019458707" to="-690977716#1" departLane="best" type="veh_passenger" departSpeed="max"/>
    <trip id="veh94" depart="2735.62" from="-1019458707" to="158466203" departLane="best" type="veh_passenger" departSpeed="max"/>
    <trip id="veh95" depart="2764.72" from="5035715#0" to="-690977716#1" departLane="best" type="veh_passenger"/>
    <trip id="veh96" depart="2793.82" from="-1019458707" to="-183541938#7" departLane="best" type="veh_passenger" departSpeed="max"/>
    <trip id="veh97" depart="2822.92" from="109973440" to="538760337#1" departLane="best" type="veh_passenger" departSpeed="max"/>
    <trip id="veh98" depart="2852.03" from="690977719#0" to="158466203" departLane="best" type="veh_passenger" departSpeed="max"/>
    <trip id="veh99" depart="2881.13" from="5035715#0" to="1019458708#1" departLane="best" type="veh_passenger"/>
    <trip id="veh100" depart="2910.23" from="5035715#0" to="-183541938#7" departLane="best" type="veh_passenger"/>
    <trip id="veh101" depart="2939.33" from="109973440" to="158466203" departLane="best" type="veh_passenger" departSpeed="max"/>
    <trip id="veh102" depart="2968.44" from="690977719#0" to="282194769#3" departLane="best" type="veh_passenger" departSpeed="max"/>
    <trip id="veh103" depart="2997.54" from="690977719#0" to="1019458708#1" departLane="best" type="veh_passenger" departSpeed="max"/>
    <trip id="veh104" depart="3026.64" from="109973440" to="-690977716#1" departLane="best" type="veh_passenger" departSpeed="max"/>
    <trip id="veh105" depart="3055.74" from="-282194769#5" to="-690977716#1" departLane="best" type="veh_passenger" departSpeed="max"/>
    <trip id="veh106" depart="3084.84" from="5035715#1" to="282194769#3" departLane="best" type="veh_passenger"/>
    <trip id="veh107" depart="3113.95" from="690977719#0" to="282194769#3" departLane="best" type="veh_passenger" departSpeed="max"/>
    <trip id="veh108" depart="3143.05" from="183543973#0" to="1019458708#1" departLane="best" type="veh_passenger"/>
    <trip id="veh109" depart="3172.15" from="-282194769#5" to="-183541938#7" departLane="best" type="veh_passenger" departSpeed="max"/>
    <trip id="veh110" depart="3201.25" from="-282194769#5" to="5035715#1" departLane="best" type="veh_passenger" departSpeed="max"/>
    <trip id="veh111" depart="3230.36" from="109973440" to="-690977716#1" departLane="best" type="veh_passenger" departSpeed="max"/>
    <trip id="veh112" depart="3259.46" from="109973440" to="-690977716#1" departLane="best" type="veh_passenger" departSpeed="max"/>
    <trip id="veh113" depart="3288.56" from="109973440" to="-690977716#1" departLane="best" type="veh_passenger" departSpeed="max"/>
    <trip id="veh114" depart="3317.66" from="-1019458712" to="5035715#0" departLane="best" type="veh_passenger" departSpeed="max"/>
    <trip id="veh115" depart="3346.77" from="690977719#0" to="158466203" departLane="best" type="veh_passenger" departSpeed="max"/>
    <trip id="veh116" depart="3375.87" from="1155188968#0" to="-183541938#7" departLane="best" type="veh_passenger" departSpeed="max"/>
    <trip id="veh117" depart="3404.97" from="5035715#1" to="158466203" departLane="best" type="veh_passenger"/>
    <trip id="veh118" depart="3434.07" from="-282194769#5" to="5035715#1" departLane="best" type="veh_passenger" departSpeed="max"/>
    <trip id="veh119" depart="3463.17" from="538760337#0" to="282194769#3" departLane="best" type="veh_passenger"/>
    <trip id="veh120" depart="3492.28" from="-282194769#5" to="158466203" departLane="best" type="veh_passenger" departSpeed="max"/>
    <trip id="veh121" depart="3521.38" from="1155188968#0" to="282194769#3" departLane="best" type="veh_passenger" departSpeed="max"/>
    <trip id="veh122" depart="3550.48" from="1155188968#2" to="-690977716#1" departLane="best" type="veh_passenger"/>
    <trip id="veh123" depart="3579.58" from="690977719#0" to="158466203" departLane="best" type="veh_passenger" departSpeed="max"/>
</routes>
