<?xml version="1.0" encoding="UTF-8"?>

<!-- generated on 2025-09-17 21:57:14.912922 by randomTrips.py v1_24_0+0000-b72eb3fabc8
<configuration>
    <net-file value="osm.net.xml.gz"/>
    <output-trip-file value="osm.passenger.trips.xml"/>
    <route-file value="osm.passenger.rou.xml"/>
    <prefix value="veh"/>
    <trip-attributes value="departLane=&quot;best&quot;"/>
    <fringe-start-attributes value="departSpeed=&quot;max&quot;"/>
    <vehicle-class value="passenger"/>
    <lanes value="True"/>
    <fringe-factor value="5"/>
    <allow-fringe.min-length value="1000.0"/>
    <edge-permission value="passenger"/>
    <via-edge-types value="highway.motorway,highway.motorway_link,highway.trunk_link,highway.primary_link,highway.secondary_link,highway.tertiary_link"/>
    <seed value="44"/>
    <min-distance value="300.0"/>
    <min-distance.fringe value="10.0"/>
    <remove-loops value="True"/>
    <insertion-density value="12.0"/>
</configuration>
-->

<routes xmlns:xsi="http://www.w3.org/2001/XMLSchema-instance" xsi:noNamespaceSchemaLocation="http://sumo.dlr.de/xsd/routes_file.xsd">
    <vType id="veh_passenger" vClass="passenger"/>
    <trip id="veh0" depart="0.00" from="1019458707" to="-938079508#0" departLane="best" type="veh_passenger" departSpeed="max"/>
    <trip id="veh1" depart="90.11" from="938079508#0" to="-651079992#1" departLane="best" type="veh_passenger" departSpeed="max"/>
    <trip id="veh2" depart="180.21" from="-573710407" to="-1019458707" departLane="best" type="veh_passenger" departSpeed="max"/>
    <trip id="veh3" depart="270.32" from="-573710407" to="-1019458707" departLane="best" type="veh_passenger" departSpeed="max"/>
    <trip id="veh4" depart="360.43" from="-573710407" to="-1019458707" departLane="best" type="veh_passenger" departSpeed="max"/>
    <trip id="veh5" depart="450.53" from="938079508#0" to="-1019458707" departLane="best" type="veh_passenger" departSpeed="max"/>
    <trip id="veh6" depart="540.64" from="-573710407" to="-651079992#1" departLane="best" type="veh_passenger" departSpeed="max"/>
    <trip id="veh7" depart="630.75" from="1019458707" to="573710407" departLane="best" type="veh_passenger" departSpeed="max"/>
    <trip id="veh8" depart="720.85" from="-573710407" to="-651079992#1" departLane="best" type="veh_passenger" departSpeed="max"/>
    <trip id="veh9" depart="810.96" from="-573710407" to="-1019458707" departLane="best" type="veh_passenger" departSpeed="max"/>
    <trip id="veh10" depart="901.07" from="651079976#0" to="573710407" departLane="best" type="veh_passenger" departSpeed="max"/>
    <trip id="veh11" depart="991.18" from="651079976#0" to="573710407" departLane="best" type="veh_passenger" departSpeed="max"/>
    <trip id="veh12" depart="1081.28" from="651079976#0" to="-938079508#0" departLane="best" type="veh_passenger" departSpeed="max"/>
    <trip id="veh13" depart="1171.39" from="-573710407" to="-651079992#1" departLane="best" type="veh_passenger" departSpeed="max"/>
    <trip id="veh14" depart="1261.50" from="651079976#0" to="573710407" departLane="best" type="veh_passenger" departSpeed="max"/>
    <trip id="veh15" depart="1351.60" from="-573710407" to="-651079992#1" departLane="best" type="veh_passenger" departSpeed="max"/>
    <trip id="veh16" depart="1441.71" from="651079976#0" to="-938079508#0" departLane="best" type="veh_passenger" departSpeed="max"/>
    <trip id="veh17" depart="1531.82" from="-573710407" to="-1019458707" departLane="best" type="veh_passenger" departSpeed="max"/>
    <trip id="veh18" depart="1621.92" from="651079976#0" to="-938079508#0" departLane="best" type="veh_passenger" departSpeed="max"/>
    <trip id="veh19" depart="1712.03" from="-573710407" to="-1019458707" departLane="best" type="veh_passenger" departSpeed="max"/>
    <trip id="veh20" depart="1802.14" from="651079976#0" to="573710407" departLane="best" type="veh_passenger" departSpeed="max"/>
    <trip id="veh21" depart="1892.24" from="-573710407" to="-1019458707" departLane="best" type="veh_passenger" departSpeed="max"/>
    <trip id="veh22" depart="1982.35" from="651079976#0" to="573710407" departLane="best" type="veh_passenger" departSpeed="max"/>
    <trip id="veh23" depart="2072.46" from="651079976#0" to="-938079508#0" departLane="best" type="veh_passenger" departSpeed="max"/>
    <trip id="veh24" depart="2162.56" from="-573710407" to="-651079992#1" departLane="best" type="veh_passenger" departSpeed="max"/>
    <trip id="veh25" depart="2252.67" from="651079976#0" to="573710407" departLane="best" type="veh_passenger" departSpeed="max"/>
    <trip id="veh26" depart="2342.78" from="-573710407" to="-651079992#1" departLane="best" type="veh_passenger" departSpeed="max"/>
    <trip id="veh27" depart="2432.89" from="-573710407" to="-651079992#1" departLane="best" type="veh_passenger" departSpeed="max"/>
    <trip id="veh28" depart="2522.99" from="651079976#0" to="573710407" departLane="best" type="veh_passenger" departSpeed="max"/>
    <trip id="veh29" depart="2613.10" from="651079976#0" to="573710407" departLane="best" type="veh_passenger" departSpeed="max"/>
    <trip id="veh30" depart="2703.21" from="-573710407" to="-651079992#1" departLane="best" type="veh_passenger" departSpeed="max"/>
    <trip id="veh31" depart="2793.31" from="-573710407" to="-651079992#1" departLane="best" type="veh_passenger" departSpeed="max"/>
    <trip id="veh32" depart="2883.42" from="651079976#0" to="-938079508#0" departLane="best" type="veh_passenger" departSpeed="max"/>
    <trip id="veh33" depart="2973.53" from="-573710407" to="-651079992#1" departLane="best" type="veh_passenger" departSpeed="max"/>
    <trip id="veh34" depart="3063.63" from="1019458707" to="573710407" departLane="best" type="veh_passenger" departSpeed="max"/>
    <trip id="veh35" depart="3153.74" from="-573710407" to="-1019458707" departLane="best" type="veh_passenger" departSpeed="max"/>
    <trip id="veh36" depart="3243.85" from="-573710407" to="-1019458707" departLane="best" type="veh_passenger" departSpeed="max"/>
    <trip id="veh37" depart="3333.95" from="-573710407" to="-651079992#1" departLane="best" type="veh_passenger" departSpeed="max"/>
    <trip id="veh38" depart="3424.06" from="-573710407" to="-1019458707" departLane="best" type="veh_passenger" departSpeed="max"/>
    <trip id="veh39" depart="3514.17" from="651079976#0" to="573710407" departLane="best" type="veh_passenger" departSpeed="max"/>
</routes>
